MolID_203
     RDKit          2D

  5  4  0  0  0  0  0  0  0  0999 V2000
    0.8250   -0.8250    0.0000 C   0  0  0  0  0  0  0  0  0  0  0  0
    0.8250    0.0000    0.0000 C   0  0  0  0  0  0  0  0  0  0  0  0
    0.8250    0.8250    0.0000 Cl  0  0  0  0  0  0  0  0  0  0  0  0
    1.6500    0.0000    0.0000 Cl  0  0  0  0  0  0  0  0  0  0  0  0
    0.0000    0.0000    0.0000 Cl  0  0  0  0  0  0  0  0  0  0  0  0
  1  2  1  0
  2  3  1  0
  2  4  1  0
  2  5  1  0
M  END
>  <name>  (1) 
methylchloroform

>  <logBB>  (1) 
0.4

>  <logBB_class>  (1) 
1

>  <HAC>  (1) 
5

$$$$
MolID_330
     RDKit          2D

  5  4  0  0  0  0  0  0  0  0999 V2000
    0.8239   -0.0019    0.0000 C   0  0  0  0  0  0  0  0  0  0  0  0
    1.2364   -0.7164    0.0000 C   0  0  0  0  0  0  0  0  0  0  0  0
    2.0614   -0.7164    0.0000 Cl  0  0  0  0  0  0  0  0  0  0  0  0
    0.8239   -1.4309    0.0000 Cl  0  0  0  0  0  0  0  0  0  0  0  0
   -0.0011   -0.0019    0.0000 Cl  0  0  0  0  0  0  0  0  0  0  0  0
  1  2  1  0
  2  3  1  0
  2  4  1  0
  1  5  1  0
M  END
>  <name>  (2) 
vinyltrichloride

>  <logBB>  (2) 
-0.1

>  <logBB_class>  (2) 
0

>  <HAC>  (2) 
5

$$$$
MolID_12
     RDKit          2D

  5  4  0  0  0  0  0  0  0  0999 V2000
    0.8250    0.0000    0.0000 C   0  0  0  0  0  0  0  0  0  0  0  0
    0.0000    0.0000    0.0000 C   0  0  0  0  0  0  0  0  0  0  0  0
   -0.4125   -0.7145    0.0000 F   0  0  0  0  0  0  0  0  0  0  0  0
   -0.4125    0.7145    0.0000 F   0  0  0  0  0  0  0  0  0  0  0  0
    1.2375    0.7145    0.0000 Cl  0  0  0  0  0  0  0  0  0  0  0  0
  1  2  2  0
  2  3  1  0
  2  4  1  0
  1  5  1  0
M  END
>  <name>  (3) 
1,1-difluorochloroethylene

>  <logBB>  (3) 
-0.02

>  <logBB_class>  (3) 
0

>  <HAC>  (3) 
5

$$$$
MolID_17
     RDKit          2D

  5  4  0  0  0  0  0  0  0  0999 V2000
    2.4744   -1.4300    0.0000 C   0  0  0  0  0  0  0  0  0  0  0  0
    2.0619   -0.7155    0.0000 C   0  0  0  0  0  0  0  0  0  0  0  0
    1.2369   -0.7155    0.0000 C   0  0  0  0  0  0  0  0  0  0  0  0
    0.8244   -0.0010    0.0000 C   0  0  0  0  0  0  0  0  0  0  0  0
   -0.0006   -0.0010    0.0000 O   0  0  0  0  0  0  0  0  0  0  0  0
  1  2  1  0
  2  3  1  0
  3  4  1  0
  4  5  1  0
M  END
>  <name>  (4) 
1-butanol

>  <logBB>  (4) 
-0.02

>  <logBB_class>  (4) 
0

>  <HAC>  (4) 
5

$$$$
MolID_28
     RDKit          2D

  5  4  0  0  0  0  0  0  0  0999 V2000
    0.7677    1.4786    0.0000 C   0  0  0  0  0  0  0  0  0  0  0  0
    1.1802    0.7642    0.0000 C   0  0  0  0  0  0  0  0  0  0  0  0
    0.7677    0.0497    0.0000 C   0  0  0  0  0  0  0  0  0  0  0  0
    1.1802   -0.6648    0.0000 O   0  0  0  0  0  0  0  0  0  0  0  0
   -0.0573    0.0497    0.0000 C   0  0  0  0  0  0  0  0  0  0  0  0
  1  2  1  0
  2  3  1  0
  3  4  2  0
  3  5  1  0
M  END
>  <name>  (5) 
2-butanone

>  <logBB>  (5) 
-0.07

>  <logBB_class>  (5) 
0

>  <HAC>  (5) 
5

$$$$
MolID_146
     RDKit          2D

  5  4  0  0  0  0  0  0  0  0999 V2000
    2.4750   -1.4289    0.0000 C   0  0  0  0  0  0  0  0  0  0  0  0
    2.0625   -0.7145    0.0000 C   0  0  0  0  0  0  0  0  0  0  0  0
    1.2375   -0.7145    0.0000 O   0  0  0  0  0  0  0  0  0  0  0  0
    0.8250    0.0000    0.0000 C   0  0  0  0  0  0  0  0  0  0  0  0
    0.0000    0.0000    0.0000 C   0  0  0  0  0  0  0  0  0  0  0  0
  1  2  2  0
  2  3  1  0
  3  4  1  0
  4  5  2  0
M  END
>  <name>  (6) 
Divinylether

>  <logBB>  (6) 
0.13

>  <logBB_class>  (6) 
1

>  <HAC>  (6) 
5

$$$$
MolID_155
     RDKit          2D

  5  4  0  0  0  0  0  0  0  0999 V2000
    2.4738   -1.4310    0.0000 C   0  0  0  0  0  0  0  0  0  0  0  0
    2.0613   -0.7165    0.0000 C   0  0  0  0  0  0  0  0  0  0  0  0
    1.2363   -0.7165    0.0000 O   0  0  0  0  0  0  0  0  0  0  0  0
    0.8238   -0.0020    0.0000 C   0  0  0  0  0  0  0  0  0  0  0  0
   -0.0012   -0.0020    0.0000 C   0  0  0  0  0  0  0  0  0  0  0  0
  1  2  1  0
  2  3  1  0
  3  4  1  0
  4  5  1  0
M  END
>  <name>  (7) 
ether

>  <logBB>  (7) 
0

>  <logBB_class>  (7) 
0

>  <HAC>  (7) 
5

$$$$
MolID_185
     RDKit          2D

  5  4  0  0  0  0  0  0  0  0999 V2000
    2.1231   -0.7069    0.0000 C   0  0  0  0  0  0  0  0  0  0  0  0
    1.2981   -0.7069    0.0000 C   0  0  0  0  0  0  0  0  0  0  0  0
    0.8856   -1.4213    0.0000 C   0  0  0  0  0  0  0  0  0  0  0  0
    0.8856    0.0076    0.0000 C   0  0  0  0  0  0  0  0  0  0  0  0
    0.0606    0.0076    0.0000 O   0  0  0  0  0  0  0  0  0  0  0  0
  1  2  1  0
  2  3  1  0
  2  4  1  0
  4  5  1  0
M  END
>  <name>  (8) 
isobutanol

>  <logBB>  (8) 
-0.17

>  <logBB_class>  (8) 
0

>  <HAC>  (8) 
5

$$$$
MolID_202
     RDKit          2D

  5  4  0  0  0  0  0  0  0  0999 V2000
    2.0625   -0.7145    0.0000 C   0  0  0  0  0  0  0  0  0  0  0  0
    1.2375   -0.7145    0.0000 C   0  0  0  0  0  0  0  0  0  0  0  0
    0.8250   -1.4290    0.0000 O   0  0  0  0  0  0  0  0  0  0  0  0
    0.8250    0.0000    0.0000 O   0  0  0  0  0  0  0  0  0  0  0  0
    0.0000    0.0000    0.0000 C   0  0  0  0  0  0  0  0  0  0  0  0
  1  2  1  0
  2  3  2  0
  2  4  1  0
  4  5  1  0
M  END
>  <name>  (9) 
methylacetate

>  <logBB>  (9) 
-0.13

>  <logBB_class>  (9) 
0

>  <HAC>  (9) 
5

$$$$
MolID_11
     RDKit          2D

  6  5  0  0  0  0  0  0  0  0999 V2000
    0.8239   -0.0019    0.0000 C   0  0  0  0  0  0  0  0  0  0  0  0
    1.2364   -0.7164    0.0000 C   0  0  0  0  0  0  0  0  0  0  0  0
    1.6489   -1.4309    0.0000 Cl  0  0  0  0  0  0  0  0  0  0  0  0
    1.9509   -0.3039    0.0000 Cl  0  0  0  0  0  0  0  0  0  0  0  0
    0.5219   -1.1289    0.0000 Cl  0  0  0  0  0  0  0  0  0  0  0  0
   -0.0011   -0.0019    0.0000 Cl  0  0  0  0  0  0  0  0  0  0  0  0
  1  2  1  0
  2  3  1  0
  2  4  1  0
  2  5  1  0
  1  6  1  0
M  END
>  <name>  (10) 
1,1,1,2-tetrachloroethane

>  <logBB>  (10) 
0.33

>  <logBB_class>  (10) 
1

>  <HAC>  (10) 
6

$$$$
MolID_23
     RDKit          2D

  6  5  0  0  0  0  0  0  0  0999 V2000
   -0.1914    0.7145    0.0000 C   0  0  0  0  0  0  0  0  0  0  0  0
    0.5230    1.1270    0.0000 C   0  0  0  0  0  0  0  0  0  0  0  0
    1.2375    0.7145    0.0000 C   0  0  0  0  0  0  0  0  0  0  0  0
    1.9520    1.1270    0.0000 C   0  0  0  0  0  0  0  0  0  0  0  0
    2.6664    0.7145    0.0000 C   0  0  0  0  0  0  0  0  0  0  0  0
    3.3809    1.1270    0.0000 O   0  0  0  0  0  0  0  0  0  0  0  0
  1  2  1  0
  2  3  1  0
  3  4  1  0
  4  5  1  0
  5  6  1  0
M  END
>  <name>  (11) 
1-pentanol

>  <logBB>  (11) 
0.2

>  <logBB_class>  (11) 
1

>  <HAC>  (11) 
6

$$$$
MolID_26
     RDKit          2D

  6  5  0  0  0  0  0  0  0  0999 V2000
    0.0667   -1.2167    0.0000 C   0  0  0  0  0  0  0  0  0  0  0  0
    0.7811   -0.8042    0.0000 C   0  0  0  0  0  0  0  0  0  0  0  0
    0.7811    0.0208    0.0000 C   0  0  0  0  0  0  0  0  0  0  0  0
    0.7811    0.8458    0.0000 C   0  0  0  0  0  0  0  0  0  0  0  0
    1.6061    0.0208    0.0000 C   0  0  0  0  0  0  0  0  0  0  0  0
   -0.0439    0.0208    0.0000 C   0  0  0  0  0  0  0  0  0  0  0  0
  1  2  1  0
  2  3  1  0
  3  4  1  0
  3  5  1  0
  3  6  1  0
M  END
>  <name>  (12) 
2,2-Dimethylbutane

>  <logBB>  (12) 
1.04

>  <logBB_class>  (12) 
1

>  <HAC>  (12) 
6

$$$$
MolID_33
     RDKit          2D

  6  5  0  0  0  0  0  0  0  0999 V2000
    2.5747   -1.3936    0.0000 C   0  0  0  0  0  0  0  0  0  0  0  0
    2.1622   -0.6792    0.0000 C   0  0  0  0  0  0  0  0  0  0  0  0
    2.5747    0.0353    0.0000 C   0  0  0  0  0  0  0  0  0  0  0  0
    1.3372   -0.6792    0.0000 C   0  0  0  0  0  0  0  0  0  0  0  0
    0.9247    0.0353    0.0000 C   0  0  0  0  0  0  0  0  0  0  0  0
    0.0997    0.0353    0.0000 C   0  0  0  0  0  0  0  0  0  0  0  0
  1  2  1  0
  2  3  1  0
  2  4  1  0
  4  5  1  0
  5  6  1  0
M  END
>  <name>  (13) 
2-Methylpentane(Isohexane)

>  <logBB>  (13) 
0.97

>  <logBB_class>  (13) 
1

>  <HAC>  (13) 
6

$$$$
MolID_34
     RDKit          2D

  6  5  0  0  0  0  0  0  0  0999 V2000
    1.1937    2.1850    0.0000 C   0  0  0  0  0  0  0  0  0  0  0  0
    0.7812    1.4705    0.0000 C   0  0  0  0  0  0  0  0  0  0  0  0
    1.1937    0.7560    0.0000 C   0  0  0  0  0  0  0  0  0  0  0  0
    0.7812    0.0416    0.0000 C   0  0  0  0  0  0  0  0  0  0  0  0
    1.1937   -0.6729    0.0000 O   0  0  0  0  0  0  0  0  0  0  0  0
   -0.0438    0.0416    0.0000 C   0  0  0  0  0  0  0  0  0  0  0  0
  1  2  1  0
  2  3  1  0
  3  4  1  0
  4  5  2  0
  4  6  1  0
M  END
>  <name>  (14) 
2-pentanone

>  <logBB>  (14) 
-0.01

>  <logBB_class>  (14) 
0

>  <HAC>  (14) 
6

$$$$
MolID_40
     RDKit          2D

  6  5  0  0  0  0  0  0  0  0999 V2000
    2.3748   -1.5544    0.0000 C   0  0  0  0  0  0  0  0  0  0  0  0
    1.9623   -0.8400    0.0000 C   0  0  0  0  0  0  0  0  0  0  0  0
    1.1373   -0.8400    0.0000 C   0  0  0  0  0  0  0  0  0  0  0  0
    0.7248   -1.5544    0.0000 C   0  0  0  0  0  0  0  0  0  0  0  0
    0.7248   -0.1255    0.0000 C   0  0  0  0  0  0  0  0  0  0  0  0
   -0.1002   -0.1255    0.0000 C   0  0  0  0  0  0  0  0  0  0  0  0
  1  2  1  0
  2  3  1  0
  3  4  1  0
  3  5  1  0
  5  6  1  0
M  END
>  <name>  (15) 
3-methylpentane

>  <logBB>  (15) 
1.01

>  <logBB_class>  (15) 
1

>  <HAC>  (15) 
6

$$$$
MolID_68
     RDKit          2D

  6  5  0  0  0  0  0  0  0  0999 V2000
    0.2379   -1.2719    0.0000 C   0  0  0  0  0  0  0  0  0  0  0  0
    0.9524   -0.8594    0.0000 C   0  0  0  0  0  0  0  0  0  0  0  0
    0.9524   -0.0344    0.0000 C   0  0  0  0  0  0  0  0  0  0  0  0
    0.9524    0.7906    0.0000 C   0  0  0  0  0  0  0  0  0  0  0  0
    1.7774   -0.0344    0.0000 C   0  0  0  0  0  0  0  0  0  0  0  0
    0.1274   -0.0344    0.0000 O   0  0  0  0  0  0  0  0  0  0  0  0
  1  2  1  0
  2  3  1  0
  3  4  1  0
  3  5  1  0
  3  6  1  0
M  END
>  <name>  (16) 
amylenehydrate

>  <logBB>  (16) 
0.07

>  <logBB_class>  (16) 
1

>  <HAC>  (16) 
6

$$$$
MolID_78
     RDKit          2D

  6  6  0  0  0  0  0  0  0  0999 V2000
    0.7145    1.2375    0.0000 C   0  0  0  0  0  0  0  0  0  0  0  0
    1.4289    0.8250    0.0000 C   0  0  0  0  0  0  0  0  0  0  0  0
    1.4289    0.0000    0.0000 C   0  0  0  0  0  0  0  0  0  0  0  0
    0.7145   -0.4125    0.0000 C   0  0  0  0  0  0  0  0  0  0  0  0
    0.0000    0.0000    0.0000 C   0  0  0  0  0  0  0  0  0  0  0  0
    0.0000    0.8250    0.0000 C   0  0  0  0  0  0  0  0  0  0  0  0
  1  2  2  0
  2  3  1  0
  3  4  2  0
  4  5  1  0
  5  6  2  0
  1  6  1  0
M  END
>  <name>  (17) 
benzene

>  <logBB>  (17) 
0.35

>  <logBB_class>  (17) 
1

>  <HAC>  (17) 
6

$$$$
MolID_130
     RDKit          2D

  6  6  0  0  0  0  0  0  0  0999 V2000
    0.7145    1.2375    0.0000 C   0  0  0  0  0  0  0  0  0  0  0  0
    1.4289    0.8250    0.0000 C   0  0  0  0  0  0  0  0  0  0  0  0
    1.4289    0.0000    0.0000 C   0  0  0  0  0  0  0  0  0  0  0  0
    0.7145   -0.4125    0.0000 C   0  0  0  0  0  0  0  0  0  0  0  0
    0.0000    0.0000    0.0000 C   0  0  0  0  0  0  0  0  0  0  0  0
    0.0000    0.8250    0.0000 C   0  0  0  0  0  0  0  0  0  0  0  0
  1  2  1  0
  2  3  1  0
  3  4  1  0
  4  5  1  0
  5  6  1  0
  1  6  1  0
M  END
>  <name>  (18) 
cyclohexane

>  <logBB>  (18) 
0.96

>  <logBB_class>  (18) 
1

>  <HAC>  (18) 
6

$$$$
MolID_156
     RDKit          2D

  6  5  0  0  0  0  0  0  0  0999 V2000
    1.1884    2.1909    0.0000 C   0  0  0  0  0  0  0  0  0  0  0  0
    0.7759    1.4764    0.0000 C   0  0  0  0  0  0  0  0  0  0  0  0
    1.1884    0.7620    0.0000 O   0  0  0  0  0  0  0  0  0  0  0  0
    0.7759    0.0475    0.0000 C   0  0  0  0  0  0  0  0  0  0  0  0
    1.1884   -0.6670    0.0000 O   0  0  0  0  0  0  0  0  0  0  0  0
   -0.0491    0.0475    0.0000 C   0  0  0  0  0  0  0  0  0  0  0  0
  1  2  1  0
  2  3  1  0
  3  4  1  0
  4  5  2  0
  4  6  1  0
M  END
>  <name>  (19) 
ethylacetate

>  <logBB>  (19) 
0

>  <logBB_class>  (19) 
0

>  <HAC>  (19) 
6

$$$$
MolID_204
     RDKit          2D

  6  6  0  0  0  0  0  0  0  0999 V2000
    0.6453    2.0223    0.0000 C   0  0  0  0  0  0  0  0  0  0  0  0
    0.6453    1.1973    0.0000 C   0  0  0  0  0  0  0  0  0  0  0  0
    1.3127    0.7124    0.0000 C   0  0  0  0  0  0  0  0  0  0  0  0
    1.0578   -0.0723    0.0000 C   0  0  0  0  0  0  0  0  0  0  0  0
    0.2328   -0.0723    0.0000 C   0  0  0  0  0  0  0  0  0  0  0  0
   -0.0221    0.7124    0.0000 C   0  0  0  0  0  0  0  0  0  0  0  0
  1  2  1  0
  2  3  1  0
  3  4  1  0
  4  5  1  0
  5  6  1  0
  2  6  1  0
M  END
>  <name>  (20) 
methylcyclopentane

>  <logBB>  (20) 
0.93

>  <logBB_class>  (20) 
1

>  <HAC>  (20) 
6

$$$$
MolID_206
     RDKit          2D

 20 23  0  0  0  0  0  0  0  0999 V2000
    4.6584    3.1206    0.0000 C   0  0  0  0  0  0  0  0  0  0  0  0
    4.2459    2.4061    0.0000 N   0  0  0  0  0  0  0  0  0  0  0  0
    3.4209    2.4061    0.0000 C   0  0  0  0  0  0  0  0  0  0  0  0
    3.0084    1.6916    0.0000 C   0  0  0  0  0  0  0  0  0  0  0  0
    3.4209    0.9771    0.0000 N   0  0  0  0  0  0  0  0  0  0  0  0
    4.2459    0.9771    0.0000 C   0  0  0  0  0  0  0  0  0  0  0  0
    4.6584    1.6916    0.0000 C   0  0  0  0  0  0  0  0  0  0  0  0
    4.7603    0.3321    0.0000 C   0  0  0  0  0  0  0  0  0  0  0  0
    5.5487    0.5753    0.0000 C   0  0  0  0  0  0  0  0  0  0  0  0
    6.1534    0.0142    0.0000 C   0  0  0  0  0  0  0  0  0  0  0  0
    5.9699   -0.7902    0.0000 C   0  0  0  0  0  0  0  0  0  0  0  0
    5.1815   -1.0333    0.0000 C   0  0  0  0  0  0  0  0  0  0  0  0
    4.5767   -0.4722    0.0000 C   0  0  0  0  0  0  0  0  0  0  0  0
    3.8334   -0.8301    0.0000 C   0  0  0  0  0  0  0  0  0  0  0  0
    3.0901   -0.4722    0.0000 C   0  0  0  0  0  0  0  0  0  0  0  0
    2.4854   -1.0333    0.0000 C   0  0  0  0  0  0  0  0  0  0  0  0
    1.6970   -0.7902    0.0000 C   0  0  0  0  0  0  0  0  0  0  0  0
    1.5134    0.0142    0.0000 C   0  0  0  0  0  0  0  0  0  0  0  0
    2.1182    0.5753    0.0000 C   0  0  0  0  0  0  0  0  0  0  0  0
    2.9066    0.3321    0.0000 C   0  0  0  0  0  0  0  0  0  0  0  0
  1  2  1  0
  2  3  1  0
  3  4  1  0
  4  5  1  0
  5  6  1  0
  6  7  1  0
  2  7  1  0
  6  8  1  0
  8  9  2  0
  9 10  1  0
 10 11  2  0
 11 12  1  0
 12 13  2  0
  8 13  1  0
 13 14  1  0
 14 15  1  0
 15 16  2  0
 16 17  1  0
 17 18  2  0
 18 19  1  0
 19 20  2  0
 15 20  1  0
  5 20  1  0
M  END
>  <name>  (21) 
mianserin

>  <logBB>  (21) 
0.99

>  <logBB_class>  (21) 
1

>  <HAC>  (21) 
20

$$$$
MolID_207
     RDKit          2D

 23 26  0  0  0  0  0  0  0  0999 V2000
    1.5636    0.2441    0.0000 C   0  0  0  0  0  0  0  0  0  0  0  0
    1.8835    1.0046    0.0000 C   0  0  0  0  0  0  0  0  0  0  0  0
    2.6867    1.1929    0.0000 N   0  0  0  0  0  0  0  0  0  0  0  0
    2.7558    2.0150    0.0000 C   0  0  0  0  0  0  0  0  0  0  0  0
    1.9953    2.3348    0.0000 C   0  0  0  0  0  0  0  0  0  0  0  0
    1.4562    1.7103    0.0000 N   0  0  0  0  0  0  0  0  0  0  0  0
    0.6318    1.7425    0.0000 C   0  0  0  0  0  0  0  0  0  0  0  0
    0.1430    2.4071    0.0000 C   0  0  0  0  0  0  0  0  0  0  0  0
   -0.6770    2.3161    0.0000 C   0  0  0  0  0  0  0  0  0  0  0  0
   -1.0081    1.5605    0.0000 C   0  0  0  0  0  0  0  0  0  0  0  0
   -0.5193    0.8959    0.0000 C   0  0  0  0  0  0  0  0  0  0  0  0
    0.3007    0.9869    0.0000 C   0  0  0  0  0  0  0  0  0  0  0  0
   -1.8281    1.4694    0.0000 Cl  0  0  0  0  0  0  0  0  0  0  0  0
    0.3578    3.2037    0.0000 C   0  0  0  0  0  0  0  0  0  0  0  0
    1.1145    3.5323    0.0000 N   0  0  0  0  0  0  0  0  0  0  0  0
    1.8433    3.1456    0.0000 C   0  0  0  0  0  0  0  0  0  0  0  0
   -0.2666    3.7428    0.0000 C   0  0  0  0  0  0  0  0  0  0  0  0
   -1.0458    3.4716    0.0000 C   0  0  0  0  0  0  0  0  0  0  0  0
   -1.6702    4.0108    0.0000 C   0  0  0  0  0  0  0  0  0  0  0  0
   -1.5155    4.8211    0.0000 C   0  0  0  0  0  0  0  0  0  0  0  0
   -0.7363    5.0923    0.0000 C   0  0  0  0  0  0  0  0  0  0  0  0
   -0.1119    4.5532    0.0000 C   0  0  0  0  0  0  0  0  0  0  0  0
    0.6672    4.8244    0.0000 F   0  0  0  0  0  0  0  0  0  0  0  0
  1  2  1  0
  2  3  2  0
  3  4  1  0
  4  5  2  0
  5  6  1  0
  2  6  1  0
  6  7  1  0
  7  8  2  0
  8  9  1  0
  9 10  2  0
 10 11  1  0
 11 12  2  0
  7 12  1  0
 10 13  1  0
  8 14  1  0
 14 15  2  0
 15 16  1  0
  5 16  1  0
 14 17  1  0
 17 18  2  0
 18 19  1  0
 19 20  2  0
 20 21  1  0
 21 22  2  0
 17 22  1  0
 22 23  1  0
M  END
>  <name>  (22) 
midazolam

>  <logBB>  (22) 
0.37

>  <logBB_class>  (22) 
1

>  <HAC>  (22) 
23

$$$$
MolID_208
     RDKit          2D

 19 21  0  0  0  0  0  0  0  0999 V2000
    2.1219   -2.8961    0.0000 C   0  0  0  0  0  0  0  0  0  0  0  0
    1.4074   -2.4836    0.0000 O   0  0  0  0  0  0  0  0  0  0  0  0
    1.4074   -1.6586    0.0000 N   0  0  0  0  0  0  0  0  0  0  0  0
    0.6929   -1.2461    0.0000 C   0  0  0  0  0  0  0  0  0  0  0  0
    0.6929   -0.4211    0.0000 C   0  0  0  0  0  0  0  0  0  0  0  0
    1.4074   -0.0086    0.0000 C   0  0  0  0  0  0  0  0  0  0  0  0
    1.4074    0.8164    0.0000 O   0  0  0  0  0  0  0  0  0  0  0  0
    2.1219   -0.4211    0.0000 C   0  0  0  0  0  0  0  0  0  0  0  0
    2.8364   -0.0086    0.0000 C   0  0  0  0  0  0  0  0  0  0  0  0
    3.5508   -0.4211    0.0000 C   0  0  0  0  0  0  0  0  0  0  0  0
    3.5508   -1.2461    0.0000 C   0  0  0  0  0  0  0  0  0  0  0  0
    2.8364   -1.6586    0.0000 C   0  0  0  0  0  0  0  0  0  0  0  0
    2.1219   -1.2461    0.0000 C   0  0  0  0  0  0  0  0  0  0  0  0
    4.3355   -1.5011    0.0000 O   0  0  0  0  0  0  0  0  0  0  0  0
    4.8204   -0.8336    0.0000 C   0  0  0  0  0  0  0  0  0  0  0  0
    4.3355   -0.1662    0.0000 O   0  0  0  0  0  0  0  0  0  0  0  0
   -0.0215   -0.0086    0.0000 C   0  0  0  0  0  0  0  0  0  0  0  0
   -0.7360   -0.4211    0.0000 O   0  0  0  0  0  0  0  0  0  0  0  0
   -0.0215    0.8164    0.0000 O   0  0  0  0  0  0  0  0  0  0  0  0
  1  2  1  0
  2  3  1  0
  3  4  1  0
  4  5  2  0
  5  6  1  0
  6  7  2  0
  6  8  1  0
  8  9  2  0
  9 10  1  0
 10 11  2  0
 11 12  1  0
 12 13  2  0
  8 13  1  0
  3 13  1  0
 11 14  1  0
 14 15  1  0
 15 16  1  0
 10 16  1  0
  5 17  1  0
 17 18  1  0
 17 19  2  0
M  END
>  <name>  (23) 
miloxacin

>  <logBB>  (23) 
-0.92

>  <logBB_class>  (23) 
0

>  <HAC>  (23) 
19

$$$$
MolID_209
     RDKit          2D

 20 23  0  0  0  0  0  0  0  0999 V2000
    4.6455    3.1113    0.0000 C   0  0  0  0  0  0  0  0  0  0  0  0
    4.2330    2.3969    0.0000 N   0  0  0  0  0  0  0  0  0  0  0  0
    3.4080    2.3969    0.0000 C   0  0  0  0  0  0  0  0  0  0  0  0
    2.9955    1.6824    0.0000 C   0  0  0  0  0  0  0  0  0  0  0  0
    3.4080    0.9679    0.0000 N   0  0  0  0  0  0  0  0  0  0  0  0
    4.2330    0.9679    0.0000 C   0  0  0  0  0  0  0  0  0  0  0  0
    4.6455    1.6824    0.0000 C   0  0  0  0  0  0  0  0  0  0  0  0
    4.7473    0.3229    0.0000 C   0  0  0  0  0  0  0  0  0  0  0  0
    5.5357    0.5661    0.0000 C   0  0  0  0  0  0  0  0  0  0  0  0
    6.1405    0.0049    0.0000 C   0  0  0  0  0  0  0  0  0  0  0  0
    5.9569   -0.7994    0.0000 C   0  0  0  0  0  0  0  0  0  0  0  0
    5.1685   -1.0425    0.0000 C   0  0  0  0  0  0  0  0  0  0  0  0
    4.5638   -0.4814    0.0000 C   0  0  0  0  0  0  0  0  0  0  0  0
    3.8205   -0.8394    0.0000 C   0  0  0  0  0  0  0  0  0  0  0  0
    3.0772   -0.4814    0.0000 C   0  0  0  0  0  0  0  0  0  0  0  0
    2.8936    0.3229    0.0000 C   0  0  0  0  0  0  0  0  0  0  0  0
    2.1052    0.5661    0.0000 N   0  0  0  0  0  0  0  0  0  0  0  0
    1.5005    0.0049    0.0000 C   0  0  0  0  0  0  0  0  0  0  0  0
    1.6841   -0.7994    0.0000 C   0  0  0  0  0  0  0  0  0  0  0  0
    2.4724   -1.0425    0.0000 C   0  0  0  0  0  0  0  0  0  0  0  0
  1  2  1  0
  2  3  1  0
  3  4  1  0
  4  5  1  0
  5  6  1  0
  6  7  1  0
  2  7  1  0
  6  8  1  0
  8  9  2  0
  9 10  1  0
 10 11  2  0
 11 12  1  0
 12 13  2  0
  8 13  1  0
 13 14  1  0
 14 15  1  0
 15 16  2  0
  5 16  1  0
 16 17  1  0
 17 18  2  0
 18 19  1  0
 19 20  2  0
 15 20  1  0
M  END
>  <name>  (24) 
mirtazapine

>  <logBB>  (24) 
0.53

>  <logBB_class>  (24) 
1

>  <HAC>  (24) 
20

$$$$
MolID_210
     RDKit          2D

 21 25  0  0  0  0  0  0  0  0999 V2000
    5.2181    2.0008    0.0000 O   0  0  0  0  0  0  0  0  0  0  0  0
    4.9012    1.2407    0.0000 C   0  0  0  0  0  0  0  0  0  0  0  0
    4.0538    1.1464    0.0000 C   0  0  0  0  0  0  0  0  0  0  0  0
    3.3429    1.5887    0.0000 O   0  0  0  0  0  0  0  0  0  0  0  0
    3.7642    0.3796    0.0000 C   0  0  0  0  0  0  0  0  0  0  0  0
    4.2856   -0.2643    0.0000 C   0  0  0  0  0  0  0  0  0  0  0  0
    5.1102   -0.1789    0.0000 C   0  0  0  0  0  0  0  0  0  0  0  0
    5.4199    0.5857    0.0000 C   0  0  0  0  0  0  0  0  0  0  0  0
    3.9889   -1.0127    0.0000 C   0  0  0  0  0  0  0  0  0  0  0  0
    3.1705   -1.0239    0.0000 C   0  0  0  0  0  0  0  0  0  0  0  0
    2.5813   -0.2388    0.0000 C   0  0  0  0  0  0  0  0  0  0  0  0
    1.6072   -0.0920    0.0000 C   0  0  0  0  0  0  0  0  0  0  0  0
    1.2972    0.6481    0.0000 C   0  0  0  0  0  0  0  0  0  0  0  0
    1.8550    1.2475    0.0000 C   0  0  0  0  0  0  0  0  0  0  0  0
    1.6002    2.0305    0.0000 O   0  0  0  0  0  0  0  0  0  0  0  0
    2.6795    1.0877    0.0000 C   0  0  0  0  0  0  0  0  0  0  0  0
    2.8961    0.2566    0.0000 C   0  0  0  0  0  0  0  0  0  0  0  0
    2.0511   -0.3411    0.0000 C   0  0  0  0  0  0  0  0  0  0  0  0
    1.9080   -1.2254    0.0000 C   0  0  0  0  0  0  0  0  0  0  0  0
    2.6296   -1.6094    0.0000 N   0  0  0  0  0  0  0  0  0  0  0  0
    2.7673   -2.4216    0.0000 C   0  0  0  0  0  0  0  0  0  0  0  0
  1  2  1  0
  2  3  2  0
  3  4  1  0
  3  5  1  0
  5  6  2  0
  6  7  1  0
  7  8  2  0
  2  8  1  0
  6  9  1  0
  9 10  1  0
 10 11  1  0
 11 12  1  0
 12 13  2  0
 13 14  1  0
 14 15  1  0
 14 16  1  0
  4 16  1  0
 16 17  1  0
 11 17  1  0
  5 17  1  0
 17 18  1  0
 18 19  1  0
 19 20  1  0
 10 20  1  0
 20 21  1  0
M  END
>  <name>  (25) 
Morphine

>  <logBB>  (25) 
-0.65

>  <logBB_class>  (25) 
0

>  <HAC>  (25) 
21

$$$$
MolID_212
     RDKit          2D

  8  8  0  0  0  0  0  0  0  0999 V2000
    0.7145    2.0625    0.0000 C   0  0  0  0  0  0  0  0  0  0  0  0
    0.7145    1.2375    0.0000 C   0  0  0  0  0  0  0  0  0  0  0  0
    1.4289    0.8250    0.0000 C   0  0  0  0  0  0  0  0  0  0  0  0
    1.4289    0.0000    0.0000 C   0  0  0  0  0  0  0  0  0  0  0  0
    0.7145   -0.4125    0.0000 C   0  0  0  0  0  0  0  0  0  0  0  0
    0.0000    0.0000    0.0000 C   0  0  0  0  0  0  0  0  0  0  0  0
    0.0000    0.8250    0.0000 C   0  0  0  0  0  0  0  0  0  0  0  0
    2.1434   -0.4125    0.0000 C   0  0  0  0  0  0  0  0  0  0  0  0
  1  2  1  0
  2  3  2  0
  3  4  1  0
  4  5  2  0
  5  6  1  0
  6  7  2  0
  2  7  1  0
  4  8  1  0
M  END
>  <name>  (26) 
m-xylene

>  <logBB>  (26) 
0.28

>  <logBB_class>  (26) 
1

>  <HAC>  (26) 
8

$$$$
MolID_213
     RDKit          2D

 15 16  0  0  0  0  0  0  0  0999 V2000
    0.7145    5.9411    0.0000 C   0  0  0  0  0  0  0  0  0  0  0  0
    1.4289    5.5286    0.0000 C   0  0  0  0  0  0  0  0  0  0  0  0
    1.4289    4.7036    0.0000 C   0  0  0  0  0  0  0  0  0  0  0  0
    0.7145    4.2911    0.0000 C   0  0  0  0  0  0  0  0  0  0  0  0
    0.0000    4.7036    0.0000 C   0  0  0  0  0  0  0  0  0  0  0  0
    0.0000    5.5286    0.0000 C   0  0  0  0  0  0  0  0  0  0  0  0
    0.7145    3.4661    0.0000 C   0  0  0  0  0  0  0  0  0  0  0  0
    1.3819    2.9812    0.0000 C   0  0  0  0  0  0  0  0  0  0  0  0
    1.1270    2.1965    0.0000 S   0  0  0  0  0  0  0  0  0  0  0  0
    0.3020    2.1965    0.0000 C   0  0  0  0  0  0  0  0  0  0  0  0
    0.0470    2.9812    0.0000 N   0  0  0  0  0  0  0  0  0  0  0  0
   -0.1830    1.5291    0.0000 N   0  0  0  0  0  0  0  0  0  0  0  0
   -1.0034    1.6153    0.0000 C   0  0  0  0  0  0  0  0  0  0  0  0
   -1.4884    0.9479    0.0000 N   0  0  0  0  0  0  0  0  0  0  0  0
   -1.3390    2.3690    0.0000 N   0  0  0  0  0  0  0  0  0  0  0  0
  1  2  2  0
  2  3  1  0
  3  4  2  0
  4  5  1  0
  5  6  2  0
  1  6  1  0
  4  7  1  0
  7  8  2  0
  8  9  1  0
  9 10  1  0
 10 11  2  0
  7 11  1  0
 12 10  1  0
 12 13  1  0
 13 14  2  0
 13 15  1  0
M  END
>  <name>  (27) 
N-(4-phenylthiazol-2-yl)-guanidine

>  <logBB>  (27) 
-0.18

>  <logBB_class>  (27) 
0

>  <HAC>  (27) 
15

$$$$
MolID_214
     RDKit          2D

 11 11  0  0  0  0  0  0  0  0999 V2000
   -0.7170    3.7106    0.0000 C   0  0  0  0  0  0  0  0  0  0  0  0
   -0.0026    3.2981    0.0000 N   0  0  0  0  0  0  0  0  0  0  0  0
    0.7119    3.7106    0.0000 C   0  0  0  0  0  0  0  0  0  0  0  0
   -0.0026    2.4731    0.0000 C   0  0  0  0  0  0  0  0  0  0  0  0
    0.7119    2.0606    0.0000 C   0  0  0  0  0  0  0  0  0  0  0  0
    0.7119    1.2356    0.0000 C   0  0  0  0  0  0  0  0  0  0  0  0
    1.4264    0.8231    0.0000 C   0  0  0  0  0  0  0  0  0  0  0  0
    1.4264   -0.0019    0.0000 C   0  0  0  0  0  0  0  0  0  0  0  0
    0.7119   -0.4144    0.0000 C   0  0  0  0  0  0  0  0  0  0  0  0
   -0.0026   -0.0019    0.0000 C   0  0  0  0  0  0  0  0  0  0  0  0
   -0.0026    0.8231    0.0000 N   0  0  0  0  0  0  0  0  0  0  0  0
  1  2  1  0
  2  3  1  0
  2  4  1  0
  4  5  1  0
  5  6  1  0
  6  7  2  0
  7  8  1  0
  8  9  2  0
  9 10  1  0
 10 11  2  0
  6 11  1  0
M  END
>  <name>  (28) 
N,N-dimethylpyridine-2-ethylamine

>  <logBB>  (28) 
-0.06

>  <logBB_class>  (28) 
0

>  <HAC>  (28) 
11

$$$$
MolID_215
     RDKit          2D

 17 18  0  0  0  0  0  0  0  0999 V2000
    0.7150    1.2372    0.0000 C   0  0  0  0  0  0  0  0  0  0  0  0
    0.0005    0.8247    0.0000 C   0  0  0  0  0  0  0  0  0  0  0  0
    0.0005   -0.0003    0.0000 N   0  0  0  0  0  0  0  0  0  0  0  0
   -0.7139   -0.4128    0.0000 C   0  0  0  0  0  0  0  0  0  0  0  0
   -0.7139   -1.2378    0.0000 C   0  0  0  0  0  0  0  0  0  0  0  0
    0.0005   -1.6503    0.0000 C   0  0  0  0  0  0  0  0  0  0  0  0
    0.0005   -2.4753    0.0000 O   0  0  0  0  0  0  0  0  0  0  0  0
    0.7150   -1.2378    0.0000 C   0  0  0  0  0  0  0  0  0  0  0  0
    0.7150   -0.4128    0.0000 C   0  0  0  0  0  0  0  0  0  0  0  0
    1.4295   -0.0003    0.0000 N   0  0  0  0  0  0  0  0  0  0  0  0
    2.1439   -0.4128    0.0000 C   0  0  0  0  0  0  0  0  0  0  0  0
    2.1439   -1.2378    0.0000 C   0  0  0  0  0  0  0  0  0  0  0  0
    1.4295   -1.6503    0.0000 C   0  0  0  0  0  0  0  0  0  0  0  0
    2.8584   -0.0003    0.0000 C   0  0  0  0  0  0  0  0  0  0  0  0
   -1.4284   -1.6503    0.0000 C   0  0  0  0  0  0  0  0  0  0  0  0
   -1.4284   -2.4753    0.0000 O   0  0  0  0  0  0  0  0  0  0  0  0
   -2.1429   -1.2378    0.0000 O   0  0  0  0  0  0  0  0  0  0  0  0
  1  2  1  0
  2  3  1  0
  3  4  1  0
  4  5  2  0
  5  6  1  0
  6  7  2  0
  6  8  1  0
  8  9  2  0
  3  9  1  0
  9 10  1  0
 10 11  2  0
 11 12  1  0
 12 13  2  0
  8 13  1  0
 11 14  1  0
  5 15  1  0
 15 16  1  0
 15 17  2  0
M  END
>  <name>  (29) 
nalidixicacid

>  <logBB>  (29) 
-0.66

>  <logBB_class>  (29) 
0

>  <HAC>  (29) 
17

$$$$
MolID_216
     RDKit          2D

 40 43  0  0  0  0  0  0  0  0999 V2000
    1.3770   -4.8394    0.0000 C   0  0  0  0  0  0  0  0  0  0  0  0
    0.5520   -4.8394    0.0000 C   0  0  0  0  0  0  0  0  0  0  0  0
    0.1395   -4.1250    0.0000 C   0  0  0  0  0  0  0  0  0  0  0  0
   -0.6855   -4.1250    0.0000 C   0  0  0  0  0  0  0  0  0  0  0  0
   -1.0980   -4.8394    0.0000 C   0  0  0  0  0  0  0  0  0  0  0  0
   -0.6855   -5.5539    0.0000 C   0  0  0  0  0  0  0  0  0  0  0  0
    0.1395   -5.5539    0.0000 C   0  0  0  0  0  0  0  0  0  0  0  0
    0.5520   -6.2684    0.0000 O   0  0  0  0  0  0  0  0  0  0  0  0
    0.5520   -3.4105    0.0000 C   0  0  0  0  0  0  0  0  0  0  0  0
    1.3770   -3.4105    0.0000 O   0  0  0  0  0  0  0  0  0  0  0  0
    0.1395   -2.6960    0.0000 N   0  0  0  0  0  0  0  0  0  0  0  0
    0.5520   -1.9815    0.0000 C   0  0  0  0  0  0  0  0  0  0  0  0
    0.1395   -1.2671    0.0000 C   0  0  0  0  0  0  0  0  0  0  0  0
   -0.6855   -1.2671    0.0000 S   0  0  0  0  0  0  0  0  0  0  0  0
   -1.0980   -1.9815    0.0000 C   0  0  0  0  0  0  0  0  0  0  0  0
   -0.6855   -2.6960    0.0000 C   0  0  0  0  0  0  0  0  0  0  0  0
   -1.0980   -3.4105    0.0000 C   0  0  0  0  0  0  0  0  0  0  0  0
   -1.9230   -3.4105    0.0000 C   0  0  0  0  0  0  0  0  0  0  0  0
   -2.3355   -2.6960    0.0000 C   0  0  0  0  0  0  0  0  0  0  0  0
   -1.9230   -1.9815    0.0000 C   0  0  0  0  0  0  0  0  0  0  0  0
    1.3770   -1.9815    0.0000 C   0  0  0  0  0  0  0  0  0  0  0  0
    1.7895   -1.2671    0.0000 C   0  0  0  0  0  0  0  0  0  0  0  0
    1.3770   -0.5526    0.0000 N   0  0  0  0  0  0  0  0  0  0  0  0
    0.5520   -0.5526    0.0000 C   0  0  0  0  0  0  0  0  0  0  0  0
    0.1395    0.1619    0.0000 C   0  0  0  0  0  0  0  0  0  0  0  0
   -0.6855    0.1619    0.0000 C   0  0  0  0  0  0  0  0  0  0  0  0
   -1.0980    0.8763    0.0000 C   0  0  0  0  0  0  0  0  0  0  0  0
   -0.6855    1.5908    0.0000 C   0  0  0  0  0  0  0  0  0  0  0  0
    0.1395    1.5908    0.0000 C   0  0  0  0  0  0  0  0  0  0  0  0
    0.5520    0.8763    0.0000 C   0  0  0  0  0  0  0  0  0  0  0  0
    1.3770    0.8763    0.0000 C   0  0  0  0  0  0  0  0  0  0  0  0
    1.7895    0.1619    0.0000 C   0  0  0  0  0  0  0  0  0  0  0  0
    2.6145    0.1619    0.0000 C   0  0  0  0  0  0  0  0  0  0  0  0
    3.0270   -0.5526    0.0000 O   0  0  0  0  0  0  0  0  0  0  0  0
    3.0270    0.8763    0.0000 N   0  0  0  0  0  0  0  0  0  0  0  0
    2.6145    1.5908    0.0000 C   0  0  0  0  0  0  0  0  0  0  0  0
    3.3289    2.0033    0.0000 C   0  0  0  0  0  0  0  0  0  0  0  0
    1.9000    1.1783    0.0000 C   0  0  0  0  0  0  0  0  0  0  0  0
    2.2020    2.3053    0.0000 C   0  0  0  0  0  0  0  0  0  0  0  0
    1.7895   -2.6960    0.0000 O   0  0  0  0  0  0  0  0  0  0  0  0
  1  2  1  0
  2  3  2  0
  3  4  1  0
  4  5  2  0
  5  6  1  0
  6  7  2  0
  2  7  1  0
  7  8  1  0
  3  9  1  0
  9 10  2  0
  9 11  1  0
 11 12  1  0
 12 13  1  0
 13 14  1  0
 14 15  1  0
 15 16  2  0
 16 17  1  0
 17 18  2  0
 18 19  1  0
 19 20  2  0
 15 20  1  0
 12 21  1  0
 21 22  1  0
 22 23  1  0
 23 24  1  0
 24 25  1  0
 25 26  1  0
 26 27  1  0
 27 28  1  0
 28 29  1  0
 29 30  1  0
 25 30  1  0
 30 31  1  0
 31 32  1  0
 23 32  1  0
 32 33  1  0
 33 34  2  0
 33 35  1  0
 35 36  1  0
 36 37  1  0
 36 38  1  0
 36 39  1  0
 21 40  1  0
M  END
>  <name>  (30) 
nelfinavir

>  <logBB>  (30) 
-0.93

>  <logBB_class>  (30) 
0

>  <HAC>  (30) 
40

$$$$
MolID_217
     RDKit          2D

 20 23  0  0  0  0  0  0  0  0999 V2000
    0.7877   -2.7556    0.0000 C   0  0  0  0  0  0  0  0  0  0  0  0
    0.9713   -1.9513    0.0000 C   0  0  0  0  0  0  0  0  0  0  0  0
    0.3665   -1.3902    0.0000 C   0  0  0  0  0  0  0  0  0  0  0  0
    0.5501   -0.5859    0.0000 C   0  0  0  0  0  0  0  0  0  0  0  0
    1.3384   -0.3427    0.0000 N   0  0  0  0  0  0  0  0  0  0  0  0
    1.9432   -0.9038    0.0000 C   0  0  0  0  0  0  0  0  0  0  0  0
    2.6865   -0.5459    0.0000 N   0  0  0  0  0  0  0  0  0  0  0  0
    3.4298   -0.9038    0.0000 C   0  0  0  0  0  0  0  0  0  0  0  0
    3.6134   -1.7081    0.0000 C   0  0  0  0  0  0  0  0  0  0  0  0
    4.4017   -1.9513    0.0000 C   0  0  0  0  0  0  0  0  0  0  0  0
    5.0065   -1.3902    0.0000 C   0  0  0  0  0  0  0  0  0  0  0  0
    4.8229   -0.5859    0.0000 C   0  0  0  0  0  0  0  0  0  0  0  0
    4.0346   -0.3427    0.0000 N   0  0  0  0  0  0  0  0  0  0  0  0
    2.6865    0.2791    0.0000 C   0  0  0  0  0  0  0  0  0  0  0  0
    2.2740    0.9936    0.0000 C   0  0  0  0  0  0  0  0  0  0  0  0
    3.0990    0.9936    0.0000 C   0  0  0  0  0  0  0  0  0  0  0  0
    1.7596   -1.7081    0.0000 C   0  0  0  0  0  0  0  0  0  0  0  0
    2.2740   -2.3532    0.0000 N   0  0  0  0  0  0  0  0  0  0  0  0
    3.0990   -2.3532    0.0000 C   0  0  0  0  0  0  0  0  0  0  0  0
    3.4570   -3.0965    0.0000 O   0  0  0  0  0  0  0  0  0  0  0  0
  1  2  1  0
  2  3  2  0
  3  4  1  0
  4  5  2  0
  5  6  1  0
  6  7  1  0
  7  8  1  0
  8  9  2  0
  9 10  1  0
 10 11  2  0
 11 12  1  0
 12 13  2  0
  8 13  1  0
  7 14  1  0
 14 15  1  0
 15 16  1  0
 14 16  1  0
  6 17  2  0
  2 17  1  0
 17 18  1  0
 18 19  1  0
  9 19  1  0
 19 20  2  0
M  END
>  <name>  (31) 
Nevirapine

>  <logBB>  (31) 
0

>  <logBB_class>  (31) 
0

>  <HAC>  (31) 
20

$$$$
MolID_218
     RDKit          2D

  6  5  0  0  0  0  0  0  0  0999 V2000
   -0.1914    0.7145    0.0000 C   0  0  0  0  0  0  0  0  0  0  0  0
    0.5230    1.1270    0.0000 C   0  0  0  0  0  0  0  0  0  0  0  0
    1.2375    0.7145    0.0000 C   0  0  0  0  0  0  0  0  0  0  0  0
    1.9520    1.1270    0.0000 C   0  0  0  0  0  0  0  0  0  0  0  0
    2.6664    0.7145    0.0000 C   0  0  0  0  0  0  0  0  0  0  0  0
    3.3809    1.1270    0.0000 C   0  0  0  0  0  0  0  0  0  0  0  0
  1  2  1  0
  2  3  1  0
  3  4  1  0
  4  5  1  0
  5  6  1  0
M  END
>  <name>  (32) 
n-hexane

>  <logBB>  (32) 
0.78

>  <logBB_class>  (32) 
1

>  <HAC>  (32) 
6

$$$$
MolID_219
     RDKit          2D

 12 13  0  0  0  0  0  0  0  0999 V2000
    2.2742   -1.4859    0.0000 C   0  0  0  0  0  0  0  0  0  0  0  0
    1.4896   -1.7408    0.0000 N   0  0  0  0  0  0  0  0  0  0  0  0
    1.2346   -2.5254    0.0000 C   0  0  0  0  0  0  0  0  0  0  0  0
    0.4096   -2.5254    0.0000 C   0  0  0  0  0  0  0  0  0  0  0  0
    0.1547   -1.7408    0.0000 C   0  0  0  0  0  0  0  0  0  0  0  0
    0.8221   -1.2559    0.0000 C   0  0  0  0  0  0  0  0  0  0  0  0
    0.8221   -0.4309    0.0000 C   0  0  0  0  0  0  0  0  0  0  0  0
    0.1077   -0.0184    0.0000 C   0  0  0  0  0  0  0  0  0  0  0  0
    0.1077    0.8066    0.0000 N   0  0  0  0  0  0  0  0  0  0  0  0
    0.8221    1.2191    0.0000 C   0  0  0  0  0  0  0  0  0  0  0  0
    1.5366    0.8066    0.0000 C   0  0  0  0  0  0  0  0  0  0  0  0
    1.5366   -0.0184    0.0000 C   0  0  0  0  0  0  0  0  0  0  0  0
  1  2  1  0
  2  3  1  0
  3  4  1  0
  4  5  1  0
  5  6  1  0
  2  6  1  0
  6  7  1  0
  7  8  2  0
  8  9  1  0
  9 10  2  0
 10 11  1  0
 11 12  2  0
  7 12  1  0
M  END
>  <name>  (33) 
nicotine

>  <logBB>  (33) 
0.38

>  <logBB_class>  (33) 
1

>  <HAC>  (33) 
12

$$$$
MolID_220
     RDKit          2D

 30 33  0  0  0  0  0  0  0  0999 V2000
   -0.6778   -0.5083    0.0000 C   0  0  0  0  0  0  0  0  0  0  0  0
   -0.0104   -0.0234    0.0000 N   0  0  0  0  0  0  0  0  0  0  0  0
   -0.0104    0.8016    0.0000 C   0  0  0  0  0  0  0  0  0  0  0  0
    0.7742    1.0565    0.0000 N   0  0  0  0  0  0  0  0  0  0  0  0
    1.2592    0.3891    0.0000 C   0  0  0  0  0  0  0  0  0  0  0  0
    0.7742   -0.2784    0.0000 C   0  0  0  0  0  0  0  0  0  0  0  0
    1.0292   -1.0630    0.0000 O   0  0  0  0  0  0  0  0  0  0  0  0
    1.6717    1.1036    0.0000 C   0  0  0  0  0  0  0  0  0  0  0  0
    2.4967    1.1036    0.0000 C   0  0  0  0  0  0  0  0  0  0  0  0
    2.9092    0.3891    0.0000 N   0  0  0  0  0  0  0  0  0  0  0  0
    2.4967   -0.3254    0.0000 C   0  0  0  0  0  0  0  0  0  0  0  0
    1.6717   -0.3254    0.0000 C   0  0  0  0  0  0  0  0  0  0  0  0
    3.7342    0.3891    0.0000 C   0  0  0  0  0  0  0  0  0  0  0  0
    4.1467   -0.3254    0.0000 C   0  0  0  0  0  0  0  0  0  0  0  0
    4.9717   -0.3254    0.0000 C   0  0  0  0  0  0  0  0  0  0  0  0
    5.3842   -1.0399    0.0000 C   0  0  0  0  0  0  0  0  0  0  0  0
    4.9717   -1.7543    0.0000 O   0  0  0  0  0  0  0  0  0  0  0  0
    6.2092   -1.0399    0.0000 C   0  0  0  0  0  0  0  0  0  0  0  0
    6.6217   -0.3254    0.0000 C   0  0  0  0  0  0  0  0  0  0  0  0
    7.4467   -0.3254    0.0000 C   0  0  0  0  0  0  0  0  0  0  0  0
    7.8592   -1.0399    0.0000 C   0  0  0  0  0  0  0  0  0  0  0  0
    7.4467   -1.7543    0.0000 C   0  0  0  0  0  0  0  0  0  0  0  0
    6.6217   -1.7543    0.0000 C   0  0  0  0  0  0  0  0  0  0  0  0
    8.6842   -1.0399    0.0000 F   0  0  0  0  0  0  0  0  0  0  0  0
    1.0292    1.8411    0.0000 C   0  0  0  0  0  0  0  0  0  0  0  0
    0.4771    2.4542    0.0000 C   0  0  0  0  0  0  0  0  0  0  0  0
    0.7321    3.2389    0.0000 C   0  0  0  0  0  0  0  0  0  0  0  0
    1.5391    3.4104    0.0000 C   0  0  0  0  0  0  0  0  0  0  0  0
    2.0911    2.7973    0.0000 C   0  0  0  0  0  0  0  0  0  0  0  0
    1.8361    2.0127    0.0000 C   0  0  0  0  0  0  0  0  0  0  0  0
  1  2  1  0
  2  3  1  0
  3  4  1  0
  4  5  1  0
  5  6  1  0
  2  6  1  0
  6  7  2  0
  5  8  1  0
  8  9  1  0
  9 10  1  0
 10 11  1  0
 11 12  1  0
  5 12  1  0
 10 13  1  0
 13 14  1  0
 14 15  1  0
 15 16  1  0
 16 17  2  0
 16 18  1  0
 18 19  2  0
 19 20  1  0
 20 21  2  0
 21 22  1  0
 22 23  2  0
 18 23  1  0
 21 24  1  0
  4 25  1  0
 25 26  2  0
 26 27  1  0
 27 28  2  0
 28 29  1  0
 29 30  2  0
 25 30  1  0
M  END
>  <name>  (34) 
N-methylspiroperidol

>  <logBB>  (34) 
0.46

>  <logBB_class>  (34) 
1

>  <HAC>  (34) 
30

$$$$
MolID_221
     RDKit          2D

  9  8  0  0  0  0  0  0  0  0999 V2000
    2.9980    2.5565    0.0000 C   0  0  0  0  0  0  0  0  0  0  0  0
    3.7125    2.1440    0.0000 C   0  0  0  0  0  0  0  0  0  0  0  0
    4.4270    2.5565    0.0000 C   0  0  0  0  0  0  0  0  0  0  0  0
    5.1414    2.1440    0.0000 C   0  0  0  0  0  0  0  0  0  0  0  0
    5.8559    2.5565    0.0000 C   0  0  0  0  0  0  0  0  0  0  0  0
    6.5704    2.1440    0.0000 C   0  0  0  0  0  0  0  0  0  0  0  0
    7.2849    2.5565    0.0000 C   0  0  0  0  0  0  0  0  0  0  0  0
    7.9993    2.1440    0.0000 C   0  0  0  0  0  0  0  0  0  0  0  0
    8.7138    2.5565    0.0000 C   0  0  0  0  0  0  0  0  0  0  0  0
  1  2  1  0
  2  3  1  0
  3  4  1  0
  4  5  1  0
  5  6  1  0
  6  7  1  0
  7  8  1  0
  8  9  1  0
M  END
>  <name>  (35) 
n-nonane

>  <logBB>  (35) 
0.52

>  <logBB_class>  (35) 
1

>  <HAC>  (35) 
9

$$$$
MolID_222
     RDKit          2D

 20 22  0  0  0  0  0  0  0  0999 V2000
   -3.5704    1.2202    0.0000 C   0  0  0  0  0  0  0  0  0  0  0  0
   -2.8559    1.6327    0.0000 N   0  0  0  0  0  0  0  0  0  0  0  0
   -2.1414    1.2202    0.0000 C   0  0  0  0  0  0  0  0  0  0  0  0
   -1.4270    1.6327    0.0000 C   0  0  0  0  0  0  0  0  0  0  0  0
   -0.7125    1.2202    0.0000 C   0  0  0  0  0  0  0  0  0  0  0  0
    0.0020    1.6327    0.0000 N   0  0  0  0  0  0  0  0  0  0  0  0
    0.7164    1.2202    0.0000 C   0  0  0  0  0  0  0  0  0  0  0  0
    0.7164    0.3952    0.0000 C   0  0  0  0  0  0  0  0  0  0  0  0
    1.4309   -0.0173    0.0000 C   0  0  0  0  0  0  0  0  0  0  0  0
    2.1454    0.3952    0.0000 C   0  0  0  0  0  0  0  0  0  0  0  0
    2.1454    1.2202    0.0000 C   0  0  0  0  0  0  0  0  0  0  0  0
    1.4309    1.6327    0.0000 C   0  0  0  0  0  0  0  0  0  0  0  0
    1.4309    2.4577    0.0000 S   0  0  0  0  0  0  0  0  0  0  0  0
    0.7164    2.8702    0.0000 C   0  0  0  0  0  0  0  0  0  0  0  0
    0.0020    2.4577    0.0000 C   0  0  0  0  0  0  0  0  0  0  0  0
   -0.7125    2.8702    0.0000 C   0  0  0  0  0  0  0  0  0  0  0  0
   -0.7125    3.6952    0.0000 C   0  0  0  0  0  0  0  0  0  0  0  0
    0.0020    4.1077    0.0000 C   0  0  0  0  0  0  0  0  0  0  0  0
    0.7164    3.6952    0.0000 C   0  0  0  0  0  0  0  0  0  0  0  0
   -1.4270    4.1077    0.0000 Cl  0  0  0  0  0  0  0  0  0  0  0  0
  1  2  1  0
  2  3  1  0
  3  4  1  0
  4  5  1  0
  5  6  1  0
  6  7  1  0
  7  8  2  0
  8  9  1  0
  9 10  2  0
 10 11  1  0
 11 12  2  0
  7 12  1  0
 12 13  1  0
 13 14  1  0
 14 15  2  0
  6 15  1  0
 15 16  1  0
 16 17  2  0
 17 18  1  0
 18 19  2  0
 14 19  1  0
 17 20  1  0
M  END
>  <name>  (36) 
norchlorpromazine

>  <logBB>  (36) 
1.38

>  <logBB_class>  (36) 
1

>  <HAC>  (36) 
20

$$$$
MolID_223
     RDKit          2D

 20 22  0  0  0  0  0  0  0  0999 V2000
    3.6750    2.0117    0.0000 C   0  0  0  0  0  0  0  0  0  0  0  0
    3.3170    1.2684    0.0000 C   0  0  0  0  0  0  0  0  0  0  0  0
    3.8314    0.6234    0.0000 O   0  0  0  0  0  0  0  0  0  0  0  0
    2.5127    1.0849    0.0000 N   0  0  0  0  0  0  0  0  0  0  0  0
    1.8677    1.5992    0.0000 C   0  0  0  0  0  0  0  0  0  0  0  0
    1.8677    2.4242    0.0000 C   0  0  0  0  0  0  0  0  0  0  0  0
    1.1532    2.8367    0.0000 C   0  0  0  0  0  0  0  0  0  0  0  0
    0.4387    2.4242    0.0000 C   0  0  0  0  0  0  0  0  0  0  0  0
    0.4387    1.5992    0.0000 C   0  0  0  0  0  0  0  0  0  0  0  0
    1.1532    1.1867    0.0000 C   0  0  0  0  0  0  0  0  0  0  0  0
   -0.2757    2.8367    0.0000 Cl  0  0  0  0  0  0  0  0  0  0  0  0
    2.5127    2.9386    0.0000 N   0  0  0  0  0  0  0  0  0  0  0  0
    3.3170    2.7550    0.0000 C   0  0  0  0  0  0  0  0  0  0  0  0
    3.8314    3.4000    0.0000 O   0  0  0  0  0  0  0  0  0  0  0  0
    2.3291    3.7429    0.0000 C   0  0  0  0  0  0  0  0  0  0  0  0
    1.5408    3.9861    0.0000 C   0  0  0  0  0  0  0  0  0  0  0  0
    1.3572    4.7904    0.0000 C   0  0  0  0  0  0  0  0  0  0  0  0
    1.9619    5.3516    0.0000 C   0  0  0  0  0  0  0  0  0  0  0  0
    2.7503    5.1084    0.0000 C   0  0  0  0  0  0  0  0  0  0  0  0
    2.9339    4.3041    0.0000 C   0  0  0  0  0  0  0  0  0  0  0  0
  1  2  1  0
  2  3  2  0
  2  4  1  0
  4  5  1  0
  5  6  2  0
  6  7  1  0
  7  8  2  0
  8  9  1  0
  9 10  2  0
  5 10  1  0
  8 11  1  0
  6 12  1  0
 12 13  1  0
  1 13  1  0
 13 14  2  0
 12 15  1  0
 15 16  2  0
 16 17  1  0
 17 18  2  0
 18 19  1  0
 19 20  2  0
 15 20  1  0
M  END
>  <name>  (37) 
norclobazam

>  <logBB>  (37) 
0.35

>  <logBB_class>  (37) 
1

>  <HAC>  (37) 
20

$$$$
MolID_224
     RDKit          2D

 19 21  0  0  0  0  0  0  0  0999 V2000
    3.6732    2.0140    0.0000 C   0  0  0  0  0  0  0  0  0  0  0  0
    3.3152    1.2707    0.0000 C   0  0  0  0  0  0  0  0  0  0  0  0
    3.8296    0.6257    0.0000 O   0  0  0  0  0  0  0  0  0  0  0  0
    2.5109    1.0871    0.0000 N   0  0  0  0  0  0  0  0  0  0  0  0
    1.8659    1.6015    0.0000 C   0  0  0  0  0  0  0  0  0  0  0  0
    1.8659    2.4265    0.0000 C   0  0  0  0  0  0  0  0  0  0  0  0
    1.1514    2.8390    0.0000 C   0  0  0  0  0  0  0  0  0  0  0  0
    0.4370    2.4265    0.0000 C   0  0  0  0  0  0  0  0  0  0  0  0
    0.4370    1.6015    0.0000 C   0  0  0  0  0  0  0  0  0  0  0  0
    1.1514    1.1890    0.0000 C   0  0  0  0  0  0  0  0  0  0  0  0
   -0.2775    2.8390    0.0000 Cl  0  0  0  0  0  0  0  0  0  0  0  0
    2.5109    2.9409    0.0000 C   0  0  0  0  0  0  0  0  0  0  0  0
    3.3152    2.7573    0.0000 N   0  0  0  0  0  0  0  0  0  0  0  0
    2.3273    3.7452    0.0000 C   0  0  0  0  0  0  0  0  0  0  0  0
    1.5390    3.9884    0.0000 C   0  0  0  0  0  0  0  0  0  0  0  0
    1.3554    4.7927    0.0000 C   0  0  0  0  0  0  0  0  0  0  0  0
    1.9602    5.3538    0.0000 C   0  0  0  0  0  0  0  0  0  0  0  0
    2.7485    5.1107    0.0000 C   0  0  0  0  0  0  0  0  0  0  0  0
    2.9321    4.3063    0.0000 C   0  0  0  0  0  0  0  0  0  0  0  0
  1  2  1  0
  2  3  2  0
  2  4  1  0
  4  5  1  0
  5  6  2  0
  6  7  1  0
  7  8  2  0
  8  9  1  0
  9 10  2  0
  5 10  1  0
  8 11  1  0
  6 12  1  0
 12 13  2  0
  1 13  1  0
 12 14  1  0
 14 15  2  0
 15 16  1  0
 16 17  2  0
 17 18  1  0
 18 19  2  0
 14 19  1  0
M  END
>  <name>  (38) 
nordiazepam

>  <logBB>  (38) 
0.52

>  <logBB_class>  (38) 
1

>  <HAC>  (38) 
19

$$$$
MolID_225
     RDKit          2D

 11 12  0  0  0  0  0  0  0  0999 V2000
    0.6228   -1.3136    0.0000 C   0  0  0  0  0  0  0  0  0  0  0  0
    1.2902   -1.7986    0.0000 C   0  0  0  0  0  0  0  0  0  0  0  0
    1.0353   -2.5832    0.0000 C   0  0  0  0  0  0  0  0  0  0  0  0
    0.2103   -2.5832    0.0000 N   0  0  0  0  0  0  0  0  0  0  0  0
   -0.0447   -1.7986    0.0000 C   0  0  0  0  0  0  0  0  0  0  0  0
    1.5202   -3.2506    0.0000 C   0  0  0  0  0  0  0  0  0  0  0  0
    2.3407   -3.1644    0.0000 C   0  0  0  0  0  0  0  0  0  0  0  0
    2.8256   -3.8318    0.0000 N   0  0  0  0  0  0  0  0  0  0  0  0
    2.4900   -4.5855    0.0000 C   0  0  0  0  0  0  0  0  0  0  0  0
    1.6696   -4.6717    0.0000 C   0  0  0  0  0  0  0  0  0  0  0  0
    1.1846   -4.0043    0.0000 C   0  0  0  0  0  0  0  0  0  0  0  0
  1  2  1  0
  2  3  1  0
  3  4  1  0
  4  5  1  0
  1  5  1  0
  3  6  1  0
  6  7  2  0
  7  8  1  0
  8  9  2  0
  9 10  1  0
 10 11  2  0
  6 11  1  0
M  END
>  <name>  (39) 
nornicotine

>  <logBB>  (39) 
0.32

>  <logBB_class>  (39) 
1

>  <HAC>  (39) 
11

$$$$
MolID_226
     RDKit          2D

 24 27  0  0  0  0  0  0  0  0999 V2000
    5.6854    0.7700    0.0000 C   0  0  0  0  0  0  0  0  0  0  0  0
    4.9710    1.1825    0.0000 S   0  0  0  0  0  0  0  0  0  0  0  0
    4.2565    0.7700    0.0000 C   0  0  0  0  0  0  0  0  0  0  0  0
    3.5420    1.1825    0.0000 C   0  0  0  0  0  0  0  0  0  0  0  0
    2.8275    0.7700    0.0000 C   0  0  0  0  0  0  0  0  0  0  0  0
    2.8275   -0.0550    0.0000 C   0  0  0  0  0  0  0  0  0  0  0  0
    3.5420   -0.4675    0.0000 C   0  0  0  0  0  0  0  0  0  0  0  0
    4.2565   -0.0550    0.0000 C   0  0  0  0  0  0  0  0  0  0  0  0
    2.1131   -0.4675    0.0000 S   0  0  0  0  0  0  0  0  0  0  0  0
    1.3986   -0.0550    0.0000 C   0  0  0  0  0  0  0  0  0  0  0  0
    0.6841   -0.4675    0.0000 C   0  0  0  0  0  0  0  0  0  0  0  0
   -0.0303   -0.0550    0.0000 C   0  0  0  0  0  0  0  0  0  0  0  0
   -0.0303    0.7700    0.0000 C   0  0  0  0  0  0  0  0  0  0  0  0
    0.6841    1.1825    0.0000 C   0  0  0  0  0  0  0  0  0  0  0  0
    1.3986    0.7700    0.0000 C   0  0  0  0  0  0  0  0  0  0  0  0
    2.1131    1.1825    0.0000 N   0  0  0  0  0  0  0  0  0  0  0  0
    2.1131    2.0075    0.0000 C   0  0  0  0  0  0  0  0  0  0  0  0
    1.3986    2.4200    0.0000 C   0  0  0  0  0  0  0  0  0  0  0  0
    1.3986    3.2450    0.0000 C   0  0  0  0  0  0  0  0  0  0  0  0
    0.6841    3.6575    0.0000 C   0  0  0  0  0  0  0  0  0  0  0  0
    0.6841    4.4825    0.0000 C   0  0  0  0  0  0  0  0  0  0  0  0
    1.3986    4.8950    0.0000 C   0  0  0  0  0  0  0  0  0  0  0  0
    2.1131    4.4825    0.0000 N   0  0  0  0  0  0  0  0  0  0  0  0
    2.1131    3.6575    0.0000 C   0  0  0  0  0  0  0  0  0  0  0  0
  1  2  1  0
  2  3  1  0
  3  4  2  0
  4  5  1  0
  5  6  2  0
  6  7  1  0
  7  8  2  0
  3  8  1  0
  6  9  1  0
  9 10  1  0
 10 11  2  0
 11 12  1  0
 12 13  2  0
 13 14  1  0
 14 15  2  0
 10 15  1  0
 15 16  1  0
  5 16  1  0
 16 17  1  0
 17 18  1  0
 18 19  1  0
 19 20  1  0
 20 21  1  0
 21 22  1  0
 22 23  1  0
 23 24  1  0
 19 24  1  0
M  END
>  <name>  (40) 
northioridazine

>  <logBB>  (40) 
0.76

>  <logBB_class>  (40) 
1

>  <HAC>  (40) 
24

$$$$
MolID_227
     RDKit          2D

 32 33  0  0  0  0  0  0  0  0999 V2000
   -0.7777   -2.2559    0.0000 C   0  0  0  0  0  0  0  0  0  0  0  0
   -0.3652   -2.9704    0.0000 C   0  0  0  0  0  0  0  0  0  0  0  0
    0.4598   -2.9704    0.0000 C   0  0  0  0  0  0  0  0  0  0  0  0
   -0.7777   -3.6849    0.0000 C   0  0  0  0  0  0  0  0  0  0  0  0
   -0.0632   -4.0974    0.0000 C   0  0  0  0  0  0  0  0  0  0  0  0
    0.6513   -3.6849    0.0000 C   0  0  0  0  0  0  0  0  0  0  0  0
    1.3658   -4.0974    0.0000 C   0  0  0  0  0  0  0  0  0  0  0  0
    2.0802   -3.6849    0.0000 N   0  0  0  0  0  0  0  0  0  0  0  0
    2.7947   -4.0974    0.0000 C   0  0  0  0  0  0  0  0  0  0  0  0
    3.5092   -3.6849    0.0000 C   0  0  0  0  0  0  0  0  0  0  0  0
    4.2236   -4.0974    0.0000 C   0  0  0  0  0  0  0  0  0  0  0  0
    4.9381   -3.6849    0.0000 C   0  0  0  0  0  0  0  0  0  0  0  0
    5.6526   -4.0974    0.0000 C   0  0  0  0  0  0  0  0  0  0  0  0
    5.6526   -4.9224    0.0000 C   0  0  0  0  0  0  0  0  0  0  0  0
    4.9381   -5.3349    0.0000 C   0  0  0  0  0  0  0  0  0  0  0  0
    4.2236   -4.9224    0.0000 C   0  0  0  0  0  0  0  0  0  0  0  0
    6.3671   -5.3349    0.0000 O   0  0  0  0  0  0  0  0  0  0  0  0
    6.3671   -6.1599    0.0000 C   0  0  0  0  0  0  0  0  0  0  0  0
    6.3671   -3.6849    0.0000 O   0  0  0  0  0  0  0  0  0  0  0  0
    7.0815   -4.0974    0.0000 C   0  0  0  0  0  0  0  0  0  0  0  0
   -1.1902   -4.3993    0.0000 C   0  0  0  0  0  0  0  0  0  0  0  0
   -1.6027   -5.1138    0.0000 N   0  0  0  0  0  0  0  0  0  0  0  0
   -1.4921   -3.2724    0.0000 C   0  0  0  0  0  0  0  0  0  0  0  0
   -2.2066   -3.6849    0.0000 C   0  0  0  0  0  0  0  0  0  0  0  0
   -2.9211   -3.2724    0.0000 C   0  0  0  0  0  0  0  0  0  0  0  0
   -2.9211   -2.4474    0.0000 C   0  0  0  0  0  0  0  0  0  0  0  0
   -2.2066   -2.0349    0.0000 C   0  0  0  0  0  0  0  0  0  0  0  0
   -1.4921   -2.4474    0.0000 C   0  0  0  0  0  0  0  0  0  0  0  0
   -3.6355   -2.0349    0.0000 O   0  0  0  0  0  0  0  0  0  0  0  0
   -4.3500   -2.4474    0.0000 C   0  0  0  0  0  0  0  0  0  0  0  0
   -3.6355   -3.6849    0.0000 O   0  0  0  0  0  0  0  0  0  0  0  0
   -4.3500   -3.2724    0.0000 C   0  0  0  0  0  0  0  0  0  0  0  0
  1  2  1  0
  2  3  1  0
  2  4  1  0
  4  5  1  0
  5  6  1  0
  6  7  1  0
  7  8  1  0
  8  9  1  0
  9 10  1  0
 10 11  1  0
 11 12  2  0
 12 13  1  0
 13 14  2  0
 14 15  1  0
 15 16  2  0
 11 16  1  0
 14 17  1  0
 17 18  1  0
 13 19  1  0
 19 20  1  0
  4 21  1  0
 21 22  3  0
  4 23  1  0
 23 24  2  0
 24 25  1  0
 25 26  2  0
 26 27  1  0
 27 28  2  0
 23 28  1  0
 26 29  1  0
 29 30  1  0
 25 31  1  0
 31 32  1  0
M  END
>  <name>  (41) 
norverapamil

>  <logBB>  (41) 
-0.64

>  <logBB_class>  (41) 
0

>  <HAC>  (41) 
32

$$$$
MolID_228
     RDKit          2D

 12 12  0  0  0  0  0  0  0  0999 V2000
    0.4623    2.6840    0.0000 C   0  0  0  0  0  0  0  0  0  0  0  0
    0.1801    1.9088    0.0000 C   0  0  0  0  0  0  0  0  0  0  0  0
    0.7104    1.2768    0.0000 C   0  0  0  0  0  0  0  0  0  0  0  0
    1.4249    0.8643    0.0000 C   0  0  0  0  0  0  0  0  0  0  0  0
    2.1394    1.2768    0.0000 O   0  0  0  0  0  0  0  0  0  0  0  0
    1.4249    0.0393    0.0000 N   0  0  0  0  0  0  0  0  0  0  0  0
    0.7104   -0.3732    0.0000 C   0  0  0  0  0  0  0  0  0  0  0  0
    0.7104   -1.1982    0.0000 O   0  0  0  0  0  0  0  0  0  0  0  0
   -0.0040    0.0393    0.0000 N   0  0  0  0  0  0  0  0  0  0  0  0
   -0.0040    0.8643    0.0000 C   0  0  0  0  0  0  0  0  0  0  0  0
   -0.7185    1.2768    0.0000 O   0  0  0  0  0  0  0  0  0  0  0  0
    1.2407    1.9088    0.0000 C   0  0  0  0  0  0  0  0  0  0  0  0
  1  2  1  0
  2  3  1  0
  3  4  1  0
  4  5  2  0
  4  6  1  0
  6  7  1  0
  7  8  2  0
  7  9  1  0
  9 10  1  0
  3 10  1  0
 10 11  2  0
  3 12  1  0
M  END
>  <name>  (42) 
NSC30403

>  <logBB>  (42) 
-0.22

>  <logBB_class>  (42) 
0

>  <HAC>  (42) 
12

$$$$
MolID_229
     RDKit          2D

  8  7  0  0  0  0  0  0  0  0999 V2000
    1.0461    1.4289    0.0000 C   0  0  0  0  0  0  0  0  0  0  0  0
    1.7605    1.8414    0.0000 C   0  0  0  0  0  0  0  0  0  0  0  0
    2.4750    1.4289    0.0000 C   0  0  0  0  0  0  0  0  0  0  0  0
    3.1895    1.8414    0.0000 C   0  0  0  0  0  0  0  0  0  0  0  0
    3.9040    1.4289    0.0000 C   0  0  0  0  0  0  0  0  0  0  0  0
    4.6184    1.8414    0.0000 C   0  0  0  0  0  0  0  0  0  0  0  0
    5.3329    1.4289    0.0000 C   0  0  0  0  0  0  0  0  0  0  0  0
    6.0474    1.8414    0.0000 C   0  0  0  0  0  0  0  0  0  0  0  0
  1  2  1  0
  2  3  1  0
  3  4  1  0
  4  5  1  0
  5  6  1  0
  6  7  1  0
  7  8  1  0
M  END
>  <name>  (43) 
octane

>  <logBB>  (43) 
0.69

>  <logBB_class>  (43) 
1

>  <HAC>  (43) 
8

$$$$
MolID_230
     RDKit          2D

 22 25  0  0  0  0  0  0  0  0999 V2000
    1.6233    3.9053    0.0000 C   0  0  0  0  0  0  0  0  0  0  0  0
    1.9895    3.1660    0.0000 N   0  0  0  0  0  0  0  0  0  0  0  0
    2.8128    3.1136    0.0000 C   0  0  0  0  0  0  0  0  0  0  0  0
    3.1791    2.3743    0.0000 C   0  0  0  0  0  0  0  0  0  0  0  0
    2.7220    1.6875    0.0000 N   0  0  0  0  0  0  0  0  0  0  0  0
    3.0882    0.9483    0.0000 C   0  0  0  0  0  0  0  0  0  0  0  0
    3.9132    0.9575    0.0000 N   0  0  0  0  0  0  0  0  0  0  0  0
    4.4347    0.3183    0.0000 C   0  0  0  0  0  0  0  0  0  0  0  0
    5.2203    0.5702    0.0000 C   0  0  0  0  0  0  0  0  0  0  0  0
    5.8313    0.0159    0.0000 C   0  0  0  0  0  0  0  0  0  0  0  0
    5.6567   -0.7904    0.0000 C   0  0  0  0  0  0  0  0  0  0  0  0
    4.8711   -1.0424    0.0000 C   0  0  0  0  0  0  0  0  0  0  0  0
    4.2601   -0.4880    0.0000 C   0  0  0  0  0  0  0  0  0  0  0  0
    3.5209   -0.8543    0.0000 N   0  0  0  0  0  0  0  0  0  0  0  0
    2.7736   -0.5047    0.0000 C   0  0  0  0  0  0  0  0  0  0  0  0
    2.5811    0.2975    0.0000 C   0  0  0  0  0  0  0  0  0  0  0  0
    1.7586    0.3623    0.0000 C   0  0  0  0  0  0  0  0  0  0  0  0
    1.4429   -0.3999    0.0000 C   0  0  0  0  0  0  0  0  0  0  0  0
    0.6407   -0.5924    0.0000 C   0  0  0  0  0  0  0  0  0  0  0  0
    2.0702   -0.9357    0.0000 S   0  0  0  0  0  0  0  0  0  0  0  0
    1.8986    1.7400    0.0000 C   0  0  0  0  0  0  0  0  0  0  0  0
    1.5324    2.4792    0.0000 C   0  0  0  0  0  0  0  0  0  0  0  0
  1  2  1  0
  2  3  1  0
  3  4  1  0
  4  5  1  0
  5  6  1  0
  6  7  2  0
  7  8  1  0
  8  9  2  0
  9 10  1  0
 10 11  2  0
 11 12  1  0
 12 13  2  0
  8 13  1  0
 13 14  1  0
 14 15  1  0
 15 16  2  0
  6 16  1  0
 16 17  1  0
 17 18  2  0
 18 19  1  0
 18 20  1  0
 15 20  1  0
  5 21  1  0
 21 22  1  0
  2 22  1  0
M  END
>  <name>  (44) 
Olanzapine

>  <logBB>  (44) 
0.78

>  <logBB_class>  (44) 
1

>  <HAC>  (44) 
22

$$$$
MolID_232
     RDKit          2D

 19 22  0  0  0  0  0  0  0  0999 V2000
   -1.7245   -1.3081    0.0000 Cl  0  0  0  0  0  0  0  0  0  0  0  0
   -0.9362   -1.0649    0.0000 C   0  0  0  0  0  0  0  0  0  0  0  0
   -0.3314   -1.6260    0.0000 C   0  0  0  0  0  0  0  0  0  0  0  0
    0.4570   -1.3829    0.0000 C   0  0  0  0  0  0  0  0  0  0  0  0
    0.6405   -0.5785    0.0000 C   0  0  0  0  0  0  0  0  0  0  0  0
    0.0358   -0.0174    0.0000 C   0  0  0  0  0  0  0  0  0  0  0  0
   -0.7526   -0.2606    0.0000 C   0  0  0  0  0  0  0  0  0  0  0  0
    1.3838   -0.2206    0.0000 O   0  0  0  0  0  0  0  0  0  0  0  0
    2.1271   -0.5785    0.0000 C   0  0  0  0  0  0  0  0  0  0  0  0
    2.3107   -1.3829    0.0000 C   0  0  0  0  0  0  0  0  0  0  0  0
    3.0991   -1.6260    0.0000 C   0  0  0  0  0  0  0  0  0  0  0  0
    3.7038   -1.0649    0.0000 C   0  0  0  0  0  0  0  0  0  0  0  0
    3.5203   -0.2606    0.0000 C   0  0  0  0  0  0  0  0  0  0  0  0
    2.7319   -0.0174    0.0000 C   0  0  0  0  0  0  0  0  0  0  0  0
    1.7963   -2.0279    0.0000 C   0  0  0  0  0  0  0  0  0  0  0  0
    0.9713   -2.0279    0.0000 C   0  0  0  0  0  0  0  0  0  0  0  0
    0.7164   -2.8125    0.0000 C   0  0  0  0  0  0  0  0  0  0  0  0
    1.3838   -3.2974    0.0000 N   0  0  0  0  0  0  0  0  0  0  0  0
    2.0513   -2.8125    0.0000 C   0  0  0  0  0  0  0  0  0  0  0  0
  1  2  1  0
  2  3  2  0
  3  4  1  0
  4  5  2  0
  5  6  1  0
  6  7  2  0
  2  7  1  0
  5  8  1  0
  8  9  1  0
  9 10  2  0
 10 11  1  0
 11 12  2  0
 12 13  1  0
 13 14  2  0
  9 14  1  0
 10 15  1  0
 15 16  1  0
  4 16  1  0
 16 17  1  0
 17 18  1  0
 18 19  1  0
 15 19  1  0
M  END
>  <name>  (45) 
Org30526

>  <logBB>  (45) 
0.39

>  <logBB_class>  (45) 
1

>  <HAC>  (45) 
19

$$$$
MolID_233
     RDKit          2D

 20 23  0  0  0  0  0  0  0  0999 V2000
    3.7696    3.0432    0.0000 C   0  0  0  0  0  0  0  0  0  0  0  0
    3.7696    2.2182    0.0000 N   0  0  0  0  0  0  0  0  0  0  0  0
    3.1022    1.7333    0.0000 C   0  0  0  0  0  0  0  0  0  0  0  0
    3.3571    0.9487    0.0000 C   0  0  0  0  0  0  0  0  0  0  0  0
    4.1821    0.9487    0.0000 C   0  0  0  0  0  0  0  0  0  0  0  0
    4.4371    1.7333    0.0000 C   0  0  0  0  0  0  0  0  0  0  0  0
    4.6965    0.3037    0.0000 C   0  0  0  0  0  0  0  0  0  0  0  0
    4.5129   -0.5006    0.0000 C   0  0  0  0  0  0  0  0  0  0  0  0
    5.1177   -1.0618    0.0000 C   0  0  0  0  0  0  0  0  0  0  0  0
    5.9060   -0.8186    0.0000 C   0  0  0  0  0  0  0  0  0  0  0  0
    6.0896   -0.0143    0.0000 C   0  0  0  0  0  0  0  0  0  0  0  0
    5.4849    0.5469    0.0000 C   0  0  0  0  0  0  0  0  0  0  0  0
    6.8780    0.2289    0.0000 Cl  0  0  0  0  0  0  0  0  0  0  0  0
    3.7696   -0.8586    0.0000 O   0  0  0  0  0  0  0  0  0  0  0  0
    3.0263   -0.5006    0.0000 C   0  0  0  0  0  0  0  0  0  0  0  0
    2.4216   -1.0618    0.0000 C   0  0  0  0  0  0  0  0  0  0  0  0
    1.6332   -0.8186    0.0000 C   0  0  0  0  0  0  0  0  0  0  0  0
    1.4496   -0.0143    0.0000 C   0  0  0  0  0  0  0  0  0  0  0  0
    2.0544    0.5469    0.0000 C   0  0  0  0  0  0  0  0  0  0  0  0
    2.8428    0.3037    0.0000 C   0  0  0  0  0  0  0  0  0  0  0  0
  1  2  1  0
  2  3  1  0
  3  4  1  0
  4  5  1  0
  5  6  1  0
  2  6  1  0
  5  7  1  0
  7  8  2  0
  8  9  1  0
  9 10  2  0
 10 11  1  0
 11 12  2  0
  7 12  1  0
 11 13  1  0
  8 14  1  0
 14 15  1  0
 15 16  2  0
 16 17  1  0
 17 18  2  0
 18 19  1  0
 19 20  2  0
  4 20  1  0
 15 20  1  0
M  END
>  <name>  (46) 
org5222

>  <logBB>  (46) 
1.03

>  <logBB_class>  (46) 
1

>  <HAC>  (46) 
20

$$$$
MolID_234
     RDKit          2D

 17 17  0  0  0  0  0  0  0  0999 V2000
    1.0883   -3.2423    0.0000 C   0  0  0  0  0  0  0  0  0  0  0  0
    1.8028   -3.6548    0.0000 C   0  0  0  0  0  0  0  0  0  0  0  0
    2.5172   -3.2423    0.0000 C   0  0  0  0  0  0  0  0  0  0  0  0
    3.2317   -3.6548    0.0000 C   0  0  0  0  0  0  0  0  0  0  0  0
    3.9462   -3.2423    0.0000 C   0  0  0  0  0  0  0  0  0  0  0  0
    4.6606   -3.6548    0.0000 C   0  0  0  0  0  0  0  0  0  0  0  0
    5.3751   -3.2423    0.0000 C   0  0  0  0  0  0  0  0  0  0  0  0
    5.9054   -2.6103    0.0000 C   0  0  0  0  0  0  0  0  0  0  0  0
    5.6233   -1.8350    0.0000 O   0  0  0  0  0  0  0  0  0  0  0  0
    6.7179   -2.7535    0.0000 N   0  0  0  0  0  0  0  0  0  0  0  0
    7.0001   -3.5288    0.0000 C   0  0  0  0  0  0  0  0  0  0  0  0
    7.8125   -3.6720    0.0000 O   0  0  0  0  0  0  0  0  0  0  0  0
    6.4698   -4.1608    0.0000 N   0  0  0  0  0  0  0  0  0  0  0  0
    5.6573   -4.0175    0.0000 C   0  0  0  0  0  0  0  0  0  0  0  0
    5.1270   -4.6495    0.0000 O   0  0  0  0  0  0  0  0  0  0  0  0
    4.8448   -2.6103    0.0000 C   0  0  0  0  0  0  0  0  0  0  0  0
    4.0324   -2.7535    0.0000 C   0  0  0  0  0  0  0  0  0  0  0  0
  1  2  1  0
  2  3  1  0
  3  4  1  0
  4  5  1  0
  5  6  1  0
  6  7  1  0
  7  8  1  0
  8  9  2  0
  8 10  1  0
 10 11  1  0
 11 12  2  0
 11 13  1  0
 13 14  1  0
  7 14  1  0
 14 15  2  0
  7 16  1  0
 16 17  1  0
M  END
>  <name>  (47) 
ortal

>  <logBB>  (47) 
0.36

>  <logBB_class>  (47) 
1

>  <HAC>  (47) 
17

$$$$
MolID_235
     RDKit          2D

 20 22  0  0  0  0  0  0  0  0999 V2000
    2.9942    3.0764    0.0000 C   0  0  0  0  0  0  0  0  0  0  0  0
    3.7825    2.8333    0.0000 C   0  0  0  0  0  0  0  0  0  0  0  0
    3.9661    2.0290    0.0000 C   0  0  0  0  0  0  0  0  0  0  0  0
    3.3613    1.4678    0.0000 C   0  0  0  0  0  0  0  0  0  0  0  0
    2.5730    1.7110    0.0000 C   0  0  0  0  0  0  0  0  0  0  0  0
    2.3894    2.5153    0.0000 C   0  0  0  0  0  0  0  0  0  0  0  0
    3.5449    0.6635    0.0000 C   0  0  0  0  0  0  0  0  0  0  0  0
    4.3492    0.4799    0.0000 N   0  0  0  0  0  0  0  0  0  0  0  0
    4.7072   -0.2634    0.0000 C   0  0  0  0  0  0  0  0  0  0  0  0
    4.3492   -1.0067    0.0000 C   0  0  0  0  0  0  0  0  0  0  0  0
    4.8636   -1.6517    0.0000 O   0  0  0  0  0  0  0  0  0  0  0  0
    3.5449   -1.1903    0.0000 N   0  0  0  0  0  0  0  0  0  0  0  0
    2.8999   -0.6759    0.0000 C   0  0  0  0  0  0  0  0  0  0  0  0
    2.8999    0.1491    0.0000 C   0  0  0  0  0  0  0  0  0  0  0  0
    2.1854    0.5616    0.0000 C   0  0  0  0  0  0  0  0  0  0  0  0
    1.4710    0.1491    0.0000 C   0  0  0  0  0  0  0  0  0  0  0  0
    1.4710   -0.6759    0.0000 C   0  0  0  0  0  0  0  0  0  0  0  0
    2.1854   -1.0884    0.0000 C   0  0  0  0  0  0  0  0  0  0  0  0
    0.7565    0.5616    0.0000 Cl  0  0  0  0  0  0  0  0  0  0  0  0
    5.5322   -0.2634    0.0000 O   0  0  0  0  0  0  0  0  0  0  0  0
  1  2  2  0
  2  3  1  0
  3  4  2  0
  4  5  1  0
  5  6  2  0
  1  6  1  0
  4  7  1  0
  7  8  2  0
  8  9  1  0
  9 10  1  0
 10 11  2  0
 10 12  1  0
 12 13  1  0
 13 14  2  0
  7 14  1  0
 14 15  1  0
 15 16  2  0
 16 17  1  0
 17 18  2  0
 13 18  1  0
 16 19  1  0
  9 20  1  0
M  END
>  <name>  (48) 
oxazepam

>  <logBB>  (48) 
0.6

>  <logBB_class>  (48) 
1

>  <HAC>  (48) 
20

$$$$
MolID_236
     RDKit          2D

  3  3  0  0  0  0  0  0  0  0999 V2000
    0.2349    0.8869    0.0000 C   0  0  0  0  0  0  0  0  0  0  0  0
    0.6474    0.1724    0.0000 C   0  0  0  0  0  0  0  0  0  0  0  0
   -0.1776    0.1724    0.0000 O   0  0  0  0  0  0  0  0  0  0  0  0
  1  2  1  0
  2  3  1  0
  1  3  1  0
M  END
>  <name>  (49) 
oxirane

>  <logBB>  (49) 
0.01

>  <logBB_class>  (49) 
1

>  <HAC>  (49) 
3

$$$$
MolID_237
     RDKit          2D

  8  8  0  0  0  0  0  0  0  0999 V2000
    0.7126    2.0917    0.0000 C   0  0  0  0  0  0  0  0  0  0  0  0
    0.7126    1.2667    0.0000 C   0  0  0  0  0  0  0  0  0  0  0  0
    1.4271    0.8542    0.0000 C   0  0  0  0  0  0  0  0  0  0  0  0
    1.4271    0.0292    0.0000 C   0  0  0  0  0  0  0  0  0  0  0  0
    0.7126   -0.3833    0.0000 C   0  0  0  0  0  0  0  0  0  0  0  0
   -0.0018    0.0292    0.0000 C   0  0  0  0  0  0  0  0  0  0  0  0
   -0.0018    0.8542    0.0000 C   0  0  0  0  0  0  0  0  0  0  0  0
   -0.7163    1.2667    0.0000 C   0  0  0  0  0  0  0  0  0  0  0  0
  1  2  1  0
  2  3  2  0
  3  4  1  0
  4  5  2  0
  5  6  1  0
  6  7  2  0
  2  7  1  0
  7  8  1  0
M  END
>  <name>  (50) 
o-xylene

>  <logBB>  (50) 
0.39

>  <logBB_class>  (50) 
1

>  <HAC>  (50) 
8

$$$$
MolID_238
     RDKit          2D

 31 35  0  0  0  0  0  0  0  0999 V2000
    1.1254   -1.6885    0.0000 C   0  0  0  0  0  0  0  0  0  0  0  0
    0.3184   -1.5169    0.0000 C   0  0  0  0  0  0  0  0  0  0  0  0
   -0.2336   -2.1300    0.0000 C   0  0  0  0  0  0  0  0  0  0  0  0
   -1.0406   -1.9585    0.0000 C   0  0  0  0  0  0  0  0  0  0  0  0
   -1.5926   -2.5716    0.0000 O   0  0  0  0  0  0  0  0  0  0  0  0
   -1.2956   -1.1739    0.0000 N   0  0  0  0  0  0  0  0  0  0  0  0
   -2.1025   -1.0024    0.0000 C   0  0  0  0  0  0  0  0  0  0  0  0
   -2.3575   -0.2177    0.0000 C   0  0  0  0  0  0  0  0  0  0  0  0
   -1.8054    0.3954    0.0000 C   0  0  0  0  0  0  0  0  0  0  0  0
   -0.9985    0.2238    0.0000 C   0  0  0  0  0  0  0  0  0  0  0  0
   -0.7435   -0.5608    0.0000 C   0  0  0  0  0  0  0  0  0  0  0  0
    0.0634   -0.7323    0.0000 N   0  0  0  0  0  0  0  0  0  0  0  0
   -0.4464    0.8369    0.0000 O   0  0  0  0  0  0  0  0  0  0  0  0
    0.0213   -2.9147    0.0000 C   0  0  0  0  0  0  0  0  0  0  0  0
    0.8283   -3.0862    0.0000 C   0  0  0  0  0  0  0  0  0  0  0  0
    1.0832   -3.8708    0.0000 N   0  0  0  0  0  0  0  0  0  0  0  0
    1.8902   -4.0423    0.0000 C   0  0  0  0  0  0  0  0  0  0  0  0
    2.1451   -4.8270    0.0000 C   0  0  0  0  0  0  0  0  0  0  0  0
    1.5931   -5.4401    0.0000 C   0  0  0  0  0  0  0  0  0  0  0  0
    0.7861   -5.2685    0.0000 C   0  0  0  0  0  0  0  0  0  0  0  0
    0.5312   -4.4839    0.0000 C   0  0  0  0  0  0  0  0  0  0  0  0
    1.8480   -6.2247    0.0000 C   0  0  0  0  0  0  0  0  0  0  0  0
    1.3631   -6.8921    0.0000 N   0  0  0  0  0  0  0  0  0  0  0  0
    1.8480   -7.5596    0.0000 O   0  0  0  0  0  0  0  0  0  0  0  0
    2.6326   -7.3046    0.0000 C   0  0  0  0  0  0  0  0  0  0  0  0
    2.6326   -6.4796    0.0000 C   0  0  0  0  0  0  0  0  0  0  0  0
    3.3471   -6.0671    0.0000 C   0  0  0  0  0  0  0  0  0  0  0  0
    4.0616   -6.4796    0.0000 C   0  0  0  0  0  0  0  0  0  0  0  0
    4.0616   -7.3046    0.0000 C   0  0  0  0  0  0  0  0  0  0  0  0
    3.3471   -7.7171    0.0000 C   0  0  0  0  0  0  0  0  0  0  0  0
    4.7761   -7.7171    0.0000 F   0  0  0  0  0  0  0  0  0  0  0  0
  1  2  1  0
  2  3  2  0
  3  4  1  0
  4  5  2  0
  4  6  1  0
  6  7  1  0
  7  8  1  0
  8  9  1  0
  9 10  1  0
 10 11  1  0
  6 11  1  0
 11 12  2  0
  2 12  1  0
 10 13  1  0
  3 14  1  0
 14 15  1  0
 15 16  1  0
 16 17  1  0
 17 18  1  0
 18 19  1  0
 19 20  1  0
 20 21  1  0
 16 21  1  0
 19 22  1  0
 22 23  2  0
 23 24  1  0
 24 25  1  0
 25 26  2  0
 22 26  1  0
 26 27  1  0
 27 28  2  0
 28 29  1  0
 29 30  2  0
 25 30  1  0
 29 31  1  0
M  END
>  <name>  (51) 
paliperidone

>  <logBB>  (51) 
-0.67

>  <logBB_class>  (51) 
0

>  <HAC>  (51) 
31

$$$$
MolID_239
     RDKit          2D

 11 11  0  0  0  0  0  0  0  0999 V2000
    0.0000    3.3000    0.0000 C   0  0  0  0  0  0  0  0  0  0  0  0
    0.0000    2.4750    0.0000 C   0  0  0  0  0  0  0  0  0  0  0  0
    0.7145    2.0625    0.0000 N   0  0  0  0  0  0  0  0  0  0  0  0
    0.7145    1.2375    0.0000 C   0  0  0  0  0  0  0  0  0  0  0  0
    1.4289    0.8250    0.0000 C   0  0  0  0  0  0  0  0  0  0  0  0
    1.4289    0.0000    0.0000 C   0  0  0  0  0  0  0  0  0  0  0  0
    0.7145   -0.4125    0.0000 C   0  0  0  0  0  0  0  0  0  0  0  0
    0.7145   -1.2375    0.0000 O   0  0  0  0  0  0  0  0  0  0  0  0
    0.0000    0.0000    0.0000 C   0  0  0  0  0  0  0  0  0  0  0  0
    0.0000    0.8250    0.0000 C   0  0  0  0  0  0  0  0  0  0  0  0
   -0.7145    2.0625    0.0000 O   0  0  0  0  0  0  0  0  0  0  0  0
  1  2  1  0
  2  3  1  0
  3  4  1  0
  4  5  2  0
  5  6  1  0
  6  7  2  0
  7  8  1  0
  7  9  1  0
  9 10  2  0
  4 10  1  0
  2 11  2  0
M  END
>  <name>  (52) 
Paracetamol

>  <logBB>  (52) 
-0.34

>  <logBB_class>  (52) 
0

>  <HAC>  (52) 
11

$$$$
MolID_240
     RDKit          2D

 13 14  0  0  0  0  0  0  0  0999 V2000
   -0.3984    0.7541    0.0000 C   0  0  0  0  0  0  0  0  0  0  0  0
   -0.1435   -0.0305    0.0000 N   0  0  0  0  0  0  0  0  0  0  0  0
   -0.6284   -0.6979    0.0000 C   0  0  0  0  0  0  0  0  0  0  0  0
   -0.1435   -1.3654    0.0000 N   0  0  0  0  0  0  0  0  0  0  0  0
    0.6411   -1.1104    0.0000 C   0  0  0  0  0  0  0  0  0  0  0  0
    0.6411   -0.2854    0.0000 C   0  0  0  0  0  0  0  0  0  0  0  0
    1.3556    0.1271    0.0000 C   0  0  0  0  0  0  0  0  0  0  0  0
    1.3556    0.9521    0.0000 O   0  0  0  0  0  0  0  0  0  0  0  0
    2.0701   -0.2854    0.0000 N   0  0  0  0  0  0  0  0  0  0  0  0
    2.0701   -1.1104    0.0000 C   0  0  0  0  0  0  0  0  0  0  0  0
    2.7845   -1.5229    0.0000 O   0  0  0  0  0  0  0  0  0  0  0  0
    1.3556   -1.5229    0.0000 N   0  0  0  0  0  0  0  0  0  0  0  0
    2.7845    0.1271    0.0000 C   0  0  0  0  0  0  0  0  0  0  0  0
  1  2  1  0
  2  3  1  0
  3  4  2  0
  4  5  1  0
  5  6  2  0
  2  6  1  0
  6  7  1  0
  7  8  2  0
  7  9  1  0
  9 10  1  0
 10 11  2  0
 10 12  1  0
  5 12  1  0
  9 13  1  0
M  END
>  <name>  (53) 
paraxanthine

>  <logBB>  (53) 
0.07

>  <logBB_class>  (53) 
1

>  <HAC>  (53) 
13

$$$$
MolID_241
     RDKit          2D

 30 33  0  0  0  0  0  0  0  0999 V2000
    1.9098    1.1508    0.0000 C   0  0  0  0  0  0  0  0  0  0  0  0
    2.7348    1.1508    0.0000 C   0  0  0  0  0  0  0  0  0  0  0  0
    3.1473    0.4364    0.0000 N   0  0  0  0  0  0  0  0  0  0  0  0
    2.7348   -0.2781    0.0000 C   0  0  0  0  0  0  0  0  0  0  0  0
    1.9098   -0.2781    0.0000 C   0  0  0  0  0  0  0  0  0  0  0  0
    1.4973    0.4364    0.0000 C   0  0  0  0  0  0  0  0  0  0  0  0
    1.0124   -0.2311    0.0000 C   0  0  0  0  0  0  0  0  0  0  0  0
    1.2673   -1.0157    0.0000 O   0  0  0  0  0  0  0  0  0  0  0  0
    0.2278    0.0239    0.0000 N   0  0  0  0  0  0  0  0  0  0  0  0
    0.2278    0.8489    0.0000 C   0  0  0  0  0  0  0  0  0  0  0  0
    1.0124    1.1038    0.0000 N   0  0  0  0  0  0  0  0  0  0  0  0
    1.2673    1.8884    0.0000 C   0  0  0  0  0  0  0  0  0  0  0  0
    0.7153    2.5015    0.0000 C   0  0  0  0  0  0  0  0  0  0  0  0
    0.9702    3.2862    0.0000 C   0  0  0  0  0  0  0  0  0  0  0  0
    1.7772    3.4577    0.0000 C   0  0  0  0  0  0  0  0  0  0  0  0
    2.3293    2.8446    0.0000 C   0  0  0  0  0  0  0  0  0  0  0  0
    2.0743    2.0600    0.0000 C   0  0  0  0  0  0  0  0  0  0  0  0
    2.0322    4.2423    0.0000 Br  0  0  0  0  0  0  0  0  0  0  0  0
    3.9723    0.4364    0.0000 C   0  0  0  0  0  0  0  0  0  0  0  0
    4.3848    1.1508    0.0000 C   0  0  0  0  0  0  0  0  0  0  0  0
    5.2098    1.1508    0.0000 C   0  0  0  0  0  0  0  0  0  0  0  0
    5.6223    1.8653    0.0000 C   0  0  0  0  0  0  0  0  0  0  0  0
    5.2098    2.5798    0.0000 O   0  0  0  0  0  0  0  0  0  0  0  0
    6.4473    1.8653    0.0000 C   0  0  0  0  0  0  0  0  0  0  0  0
    6.8598    2.5798    0.0000 C   0  0  0  0  0  0  0  0  0  0  0  0
    7.6848    2.5798    0.0000 C   0  0  0  0  0  0  0  0  0  0  0  0
    8.0973    1.8653    0.0000 C   0  0  0  0  0  0  0  0  0  0  0  0
    7.6848    1.1508    0.0000 C   0  0  0  0  0  0  0  0  0  0  0  0
    6.8598    1.1508    0.0000 C   0  0  0  0  0  0  0  0  0  0  0  0
    8.9223    1.8653    0.0000 F   0  0  0  0  0  0  0  0  0  0  0  0
  1  2  1  0
  2  3  1  0
  3  4  1  0
  4  5  1  0
  5  6  1  0
  1  6  1  0
  6  7  1  0
  7  8  2  0
  7  9  1  0
  9 10  1  0
 10 11  1  0
  6 11  1  0
 11 12  1  0
 12 13  2  0
 13 14  1  0
 14 15  2  0
 15 16  1  0
 16 17  2  0
 12 17  1  0
 15 18  1  0
  3 19  1  0
 19 20  1  0
 20 21  1  0
 21 22  1  0
 22 23  2  0
 22 24  1  0
 24 25  2  0
 25 26  1  0
 26 27  2  0
 27 28  1  0
 28 29  2  0
 24 29  1  0
 27 30  1  0
M  END
>  <name>  (54) 
p-bromospiperone

>  <logBB>  (54) 
0.07

>  <logBB_class>  (54) 
1

>  <HAC>  (54) 
30

$$$$
MolID_242
     RDKit          2D

  5  4  0  0  0  0  0  0  0  0999 V2000
    2.4745   -1.4298    0.0000 C   0  0  0  0  0  0  0  0  0  0  0  0
    2.0620   -0.7154    0.0000 C   0  0  0  0  0  0  0  0  0  0  0  0
    1.2370   -0.7154    0.0000 C   0  0  0  0  0  0  0  0  0  0  0  0
    0.8245   -0.0009    0.0000 C   0  0  0  0  0  0  0  0  0  0  0  0
   -0.0005   -0.0009    0.0000 C   0  0  0  0  0  0  0  0  0  0  0  0
  1  2  1  0
  2  3  1  0
  3  4  1  0
  4  5  1  0
M  END
>  <name>  (55) 
Pentane

>  <logBB>  (55) 
0.63

>  <logBB_class>  (55) 
1

>  <HAC>  (55) 
5

$$$$
MolID_243
     RDKit          2D

 21 23  0  0  0  0  0  0  0  0999 V2000
    1.6124   -0.9042    0.0000 C   0  0  0  0  0  0  0  0  0  0  0  0
    0.8260   -1.1538    0.0000 C   0  0  0  0  0  0  0  0  0  0  0  0
    0.2303   -2.0917    0.0000 C   0  0  0  0  0  0  0  0  0  0  0  0
    1.0532   -2.0326    0.0000 C   0  0  0  0  0  0  0  0  0  0  0  0
    1.5932   -1.4089    0.0000 C   0  0  0  0  0  0  0  0  0  0  0  0
    1.5340   -0.5860    0.0000 C   0  0  0  0  0  0  0  0  0  0  0  0
    0.9104   -0.0460    0.0000 C   0  0  0  0  0  0  0  0  0  0  0  0
    0.0875   -0.1051    0.0000 C   0  0  0  0  0  0  0  0  0  0  0  0
   -0.4526   -0.7288    0.0000 C   0  0  0  0  0  0  0  0  0  0  0  0
   -0.3934   -1.5517    0.0000 N   0  0  0  0  0  0  0  0  0  0  0  0
   -1.1310   -1.9212    0.0000 C   0  0  0  0  0  0  0  0  0  0  0  0
   -1.8198   -1.4672    0.0000 C   0  0  0  0  0  0  0  0  0  0  0  0
   -1.7711   -0.6437    0.0000 C   0  0  0  0  0  0  0  0  0  0  0  0
   -2.4599   -0.1897    0.0000 C   0  0  0  0  0  0  0  0  0  0  0  0
   -1.0335   -0.2741    0.0000 C   0  0  0  0  0  0  0  0  0  0  0  0
    1.1706    0.7369    0.0000 C   0  0  0  0  0  0  0  0  0  0  0  0
    2.2171   -0.1233    0.0000 C   0  0  0  0  0  0  0  0  0  0  0  0
    2.9593   -0.4835    0.0000 C   0  0  0  0  0  0  0  0  0  0  0  0
    3.0185   -1.3064    0.0000 C   0  0  0  0  0  0  0  0  0  0  0  0
    2.3354   -1.7691    0.0000 C   0  0  0  0  0  0  0  0  0  0  0  0
    3.6424   -0.0208    0.0000 O   0  0  0  0  0  0  0  0  0  0  0  0
  1  2  1  0
  2  3  1  0
  3  4  1  0
  4  5  1  0
  5  6  2  0
  6  7  1  0
  2  7  1  0
  7  8  1  0
  8  9  1  0
  9 10  1  0
  3 10  1  0
 10 11  1  0
 11 12  1  0
 12 13  2  0
 13 14  1  0
 13 15  1  0
  7 16  1  0
  6 17  1  0
 17 18  2  0
 18 19  1  0
 19 20  2  0
  5 20  1  0
 18 21  1  0
M  END
>  <name>  (56) 
pentazocine

>  <logBB>  (56) 
0.51

>  <logBB_class>  (56) 
1

>  <HAC>  (56) 
21

$$$$
MolID_244
     RDKit          2D

 16 16  0  0  0  0  0  0  0  0999 V2000
    0.4069    4.0688    0.0000 C   0  0  0  0  0  0  0  0  0  0  0  0
    0.1248    3.2936    0.0000 C   0  0  0  0  0  0  0  0  0  0  0  0
    0.6551    2.6616    0.0000 C   0  0  0  0  0  0  0  0  0  0  0  0
    0.3729    1.8864    0.0000 C   0  0  0  0  0  0  0  0  0  0  0  0
   -0.4396    1.7431    0.0000 C   0  0  0  0  0  0  0  0  0  0  0  0
    0.9032    1.2544    0.0000 C   0  0  0  0  0  0  0  0  0  0  0  0
    1.6177    0.8419    0.0000 C   0  0  0  0  0  0  0  0  0  0  0  0
    2.3322    1.2544    0.0000 O   0  0  0  0  0  0  0  0  0  0  0  0
    1.6177    0.0169    0.0000 N   0  0  0  0  0  0  0  0  0  0  0  0
    0.9032   -0.3956    0.0000 C   0  0  0  0  0  0  0  0  0  0  0  0
    0.9032   -1.2206    0.0000 O   0  0  0  0  0  0  0  0  0  0  0  0
    0.1887    0.0169    0.0000 N   0  0  0  0  0  0  0  0  0  0  0  0
    0.1887    0.8419    0.0000 C   0  0  0  0  0  0  0  0  0  0  0  0
   -0.5257    1.2544    0.0000 O   0  0  0  0  0  0  0  0  0  0  0  0
    1.4335    1.8864    0.0000 C   0  0  0  0  0  0  0  0  0  0  0  0
    1.1513    2.6616    0.0000 C   0  0  0  0  0  0  0  0  0  0  0  0
  1  2  1  0
  2  3  1  0
  3  4  1  0
  4  5  1  0
  4  6  1  0
  6  7  1  0
  7  8  2  0
  7  9  1  0
  9 10  1  0
 10 11  2  0
 10 12  1  0
 12 13  1  0
  6 13  1  0
 13 14  2  0
  6 15  1  0
 15 16  1  0
M  END
>  <name>  (57) 
pentobarbital

>  <logBB>  (57) 
0.08

>  <logBB_class>  (57) 
1

>  <HAC>  (57) 
16

$$$$
MolID_245
     RDKit          2D

  9  8  0  0  0  0  0  0  0  0999 V2000
    1.0171    1.3983    0.0000 C   0  0  0  0  0  0  0  0  0  0  0  0
    1.7316    1.8108    0.0000 C   0  0  0  0  0  0  0  0  0  0  0  0
    2.4461    1.3983    0.0000 C   0  0  0  0  0  0  0  0  0  0  0  0
    3.1606    1.8108    0.0000 C   0  0  0  0  0  0  0  0  0  0  0  0
    3.8750    1.3983    0.0000 C   0  0  0  0  0  0  0  0  0  0  0  0
    4.5895    1.8108    0.0000 O   0  0  0  0  0  0  0  0  0  0  0  0
    5.3040    1.3983    0.0000 C   0  0  0  0  0  0  0  0  0  0  0  0
    6.0184    1.8108    0.0000 O   0  0  0  0  0  0  0  0  0  0  0  0
    5.3040    0.5733    0.0000 C   0  0  0  0  0  0  0  0  0  0  0  0
  1  2  1  0
  2  3  1  0
  3  4  1  0
  4  5  1  0
  5  6  1  0
  6  7  1  0
  7  8  2  0
  7  9  1  0
M  END
>  <name>  (58) 
pentylacetate

>  <logBB>  (58) 
0.4

>  <logBB_class>  (58) 
1

>  <HAC>  (58) 
9

$$$$
MolID_246
     RDKit          2D

 10 11  0  0  0  0  0  0  0  0999 V2000
    3.5471    1.8011    0.0000 C   0  0  0  0  0  0  0  0  0  0  0  0
    3.1891    1.0578    0.0000 C   0  0  0  0  0  0  0  0  0  0  0  0
    2.3848    0.8742    0.0000 C   0  0  0  0  0  0  0  0  0  0  0  0
    1.7398    1.3886    0.0000 C   0  0  0  0  0  0  0  0  0  0  0  0
    0.9552    1.1337    0.0000 N   0  0  0  0  0  0  0  0  0  0  0  0
    0.4703    1.8011    0.0000 N   0  0  0  0  0  0  0  0  0  0  0  0
    0.9552    2.4685    0.0000 N   0  0  0  0  0  0  0  0  0  0  0  0
    1.7398    2.2136    0.0000 N   0  0  0  0  0  0  0  0  0  0  0  0
    2.3848    2.7280    0.0000 C   0  0  0  0  0  0  0  0  0  0  0  0
    3.1891    2.5444    0.0000 C   0  0  0  0  0  0  0  0  0  0  0  0
  1  2  1  0
  2  3  1  0
  3  4  1  0
  4  5  2  0
  5  6  1  0
  6  7  2  0
  7  8  1  0
  4  8  1  0
  8  9  1  0
  9 10  1  0
  1 10  1  0
M  END
>  <name>  (59) 
pentylenetetrazol

>  <logBB>  (59) 
-0.03

>  <logBB_class>  (59) 
0

>  <HAC>  (59) 
10

$$$$
MolID_247
     RDKit          2D

  6  5  0  0  0  0  0  0  0  0999 V2000
    0.8250    0.0000    0.0000 C   0  0  0  0  0  0  0  0  0  0  0  0
    0.0000    0.0000    0.0000 C   0  0  0  0  0  0  0  0  0  0  0  0
   -0.4125   -0.7145    0.0000 Cl  0  0  0  0  0  0  0  0  0  0  0  0
   -0.4125    0.7145    0.0000 Cl  0  0  0  0  0  0  0  0  0  0  0  0
    1.2375    0.7145    0.0000 Cl  0  0  0  0  0  0  0  0  0  0  0  0
    1.2375   -0.7145    0.0000 Cl  0  0  0  0  0  0  0  0  0  0  0  0
  1  2  2  0
  2  3  1  0
  2  4  1  0
  1  5  1  0
  1  6  1  0
M  END
>  <name>  (60) 
perchloroethylene

>  <logBB>  (60) 
0.37

>  <logBB_class>  (60) 
1

>  <HAC>  (60) 
6

$$$$
MolID_249
     RDKit          2D

 11 11  0  0  0  0  0  0  0  0999 V2000
   -0.7192    2.1265    0.0000 C   0  0  0  0  0  0  0  0  0  0  0  0
   -0.0048    2.5390    0.0000 C   0  0  0  0  0  0  0  0  0  0  0  0
    0.7097    2.1265    0.0000 C   0  0  0  0  0  0  0  0  0  0  0  0
    0.7097    1.3015    0.0000 C   0  0  0  0  0  0  0  0  0  0  0  0
    1.4242    0.8890    0.0000 C   0  0  0  0  0  0  0  0  0  0  0  0
    1.4242    0.0640    0.0000 C   0  0  0  0  0  0  0  0  0  0  0  0
    0.7097   -0.3485    0.0000 C   0  0  0  0  0  0  0  0  0  0  0  0
   -0.0048    0.0640    0.0000 C   0  0  0  0  0  0  0  0  0  0  0  0
   -0.0048    0.8890    0.0000 C   0  0  0  0  0  0  0  0  0  0  0  0
   -0.0048    3.3640    0.0000 N   0  0  0  0  0  0  0  0  0  0  0  0
   -0.7192    3.7765    0.0000 C   0  0  0  0  0  0  0  0  0  0  0  0
  1  2  1  0
  2  3  1  0
  3  4  1  0
  4  5  2  0
  5  6  1  0
  6  7  2  0
  7  8  1  0
  8  9  2  0
  4  9  1  0
  2 10  1  0
 10 11  1  0
M  END
>  <name>  (61) 
pervertin

>  <logBB>  (61) 
0.95

>  <logBB_class>  (61) 
1

>  <HAC>  (61) 
11

$$$$
MolID_250
     RDKit          2D

 18 20  0  0  0  0  0  0  0  0999 V2000
    0.6221   -0.4407    0.0000 N   0  0  0  0  0  0  0  0  0  0  0  0
    0.0918   -1.0727    0.0000 C   0  0  0  0  0  0  0  0  0  0  0  0
   -0.4385   -0.4407    0.0000 C   0  0  0  0  0  0  0  0  0  0  0  0
   -1.2510   -0.5840    0.0000 C   0  0  0  0  0  0  0  0  0  0  0  0
   -1.7813    0.0480    0.0000 C   0  0  0  0  0  0  0  0  0  0  0  0
   -1.4991    0.8233    0.0000 C   0  0  0  0  0  0  0  0  0  0  0  0
   -0.6867    0.9665    0.0000 C   0  0  0  0  0  0  0  0  0  0  0  0
   -0.1564    0.3345    0.0000 C   0  0  0  0  0  0  0  0  0  0  0  0
    0.8062   -1.4852    0.0000 C   0  0  0  0  0  0  0  0  0  0  0  0
    0.8062   -2.3102    0.0000 C   0  0  0  0  0  0  0  0  0  0  0  0
    0.0918   -2.7227    0.0000 C   0  0  0  0  0  0  0  0  0  0  0  0
   -0.6227   -2.3102    0.0000 C   0  0  0  0  0  0  0  0  0  0  0  0
   -0.6227   -1.4852    0.0000 C   0  0  0  0  0  0  0  0  0  0  0  0
    0.3399    0.3345    0.0000 C   0  0  0  0  0  0  0  0  0  0  0  0
    0.8702    0.9665    0.0000 C   0  0  0  0  0  0  0  0  0  0  0  0
    1.6827    0.8233    0.0000 C   0  0  0  0  0  0  0  0  0  0  0  0
    1.9648    0.0480    0.0000 C   0  0  0  0  0  0  0  0  0  0  0  0
    1.4345   -0.5840    0.0000 C   0  0  0  0  0  0  0  0  0  0  0  0
  1  2  1  0
  2  3  1  0
  3  4  2  0
  4  5  1  0
  5  6  2  0
  6  7  1  0
  7  8  2  0
  3  8  1  0
  2  9  1  0
  9 10  1  0
 10 11  1  0
 11 12  1  0
 12 13  1  0
  2 13  1  0
  1 14  1  0
 14 15  1  0
 15 16  1  0
 16 17  1  0
 17 18  1  0
  1 18  1  0
M  END
>  <name>  (62) 
phencyclidine

>  <logBB>  (62) 
0.44

>  <logBB_class>  (62) 
1

>  <HAC>  (62) 
18

$$$$
MolID_251
     RDKit          2D

 21 23  0  0  0  0  0  0  0  0999 V2000
    2.1444    1.2011    0.0000 C   0  0  0  0  0  0  0  0  0  0  0  0
    2.8589    0.7886    0.0000 N   0  0  0  0  0  0  0  0  0  0  0  0
    2.8589   -0.0364    0.0000 C   0  0  0  0  0  0  0  0  0  0  0  0
    3.5734    1.2011    0.0000 C   0  0  0  0  0  0  0  0  0  0  0  0
    4.2878    0.7886    0.0000 C   0  0  0  0  0  0  0  0  0  0  0  0
    5.0023    1.2011    0.0000 C   0  0  0  0  0  0  0  0  0  0  0  0
    5.7168    0.7886    0.0000 N   0  0  0  0  0  0  0  0  0  0  0  0
    6.4313    1.2011    0.0000 C   0  0  0  0  0  0  0  0  0  0  0  0
    6.4313    2.0261    0.0000 C   0  0  0  0  0  0  0  0  0  0  0  0
    7.1457    2.4386    0.0000 C   0  0  0  0  0  0  0  0  0  0  0  0
    7.8602    2.0261    0.0000 C   0  0  0  0  0  0  0  0  0  0  0  0
    7.8602    1.2011    0.0000 C   0  0  0  0  0  0  0  0  0  0  0  0
    7.1457    0.7886    0.0000 C   0  0  0  0  0  0  0  0  0  0  0  0
    7.1457   -0.0364    0.0000 S   0  0  0  0  0  0  0  0  0  0  0  0
    7.8602   -0.4489    0.0000 O   0  0  0  0  0  0  0  0  0  0  0  0
    6.4313   -0.4489    0.0000 C   0  0  0  0  0  0  0  0  0  0  0  0
    6.4313   -1.2739    0.0000 C   0  0  0  0  0  0  0  0  0  0  0  0
    5.7168   -1.6864    0.0000 C   0  0  0  0  0  0  0  0  0  0  0  0
    5.0023   -1.2739    0.0000 C   0  0  0  0  0  0  0  0  0  0  0  0
    5.0023   -0.4489    0.0000 C   0  0  0  0  0  0  0  0  0  0  0  0
    5.7168   -0.0364    0.0000 C   0  0  0  0  0  0  0  0  0  0  0  0
  1  2  1  0
  2  3  1  0
  2  4  1  0
  4  5  1  0
  5  6  1  0
  6  7  1  0
  7  8  1  0
  8  9  2  0
  9 10  1  0
 10 11  2  0
 11 12  1  0
 12 13  2  0
  8 13  1  0
 13 14  1  0
 14 15  2  0
 14 16  1  0
 16 17  2  0
 17 18  1  0
 18 19  2  0
 19 20  1  0
 20 21  2  0
 16 21  1  0
  7 21  1  0
M  END
>  <name>  (63) 
phenothiazine

>  <logBB>  (63) 
-0.48

>  <logBB_class>  (63) 
0

>  <HAC>  (63) 
21

$$$$
MolID_252
     RDKit          2D

 25 28  0  0  0  0  0  0  0  0999 V2000
    2.1176   -0.6028    0.0000 C   0  0  0  0  0  0  0  0  0  0  0  0
    2.3880    0.1766    0.0000 C   0  0  0  0  0  0  0  0  0  0  0  0
    3.0458   -0.3213    0.0000 C   0  0  0  0  0  0  0  0  0  0  0  0
    3.7226    0.1503    0.0000 C   0  0  0  0  0  0  0  0  0  0  0  0
    3.4832    0.9398    0.0000 N   0  0  0  0  0  0  0  0  0  0  0  0
    2.6584    0.9561    0.0000 C   0  0  0  0  0  0  0  0  0  0  0  0
    2.0006    1.4541    0.0000 N   0  0  0  0  0  0  0  0  0  0  0  0
    1.3237    0.9824    0.0000 C   0  0  0  0  0  0  0  0  0  0  0  0
    1.5632    0.1929    0.0000 C   0  0  0  0  0  0  0  0  0  0  0  0
    0.9992   -0.4092    0.0000 C   0  0  0  0  0  0  0  0  0  0  0  0
    0.1957   -0.2218    0.0000 C   0  0  0  0  0  0  0  0  0  0  0  0
   -0.0437    0.5677    0.0000 C   0  0  0  0  0  0  0  0  0  0  0  0
    0.5203    1.1698    0.0000 C   0  0  0  0  0  0  0  0  0  0  0  0
   -0.3683   -0.8239    0.0000 O   0  0  0  0  0  0  0  0  0  0  0  0
   -1.1717   -0.6365    0.0000 C   0  0  0  0  0  0  0  0  0  0  0  0
   -1.4111    0.1530    0.0000 O   0  0  0  0  0  0  0  0  0  0  0  0
   -1.7357   -1.2386    0.0000 N   0  0  0  0  0  0  0  0  0  0  0  0
   -2.5392   -1.0512    0.0000 C   0  0  0  0  0  0  0  0  0  0  0  0
   -3.1032   -1.6533    0.0000 C   0  0  0  0  0  0  0  0  0  0  0  0
   -3.9066   -1.4659    0.0000 C   0  0  0  0  0  0  0  0  0  0  0  0
   -4.1460   -0.6764    0.0000 C   0  0  0  0  0  0  0  0  0  0  0  0
   -3.5820   -0.0743    0.0000 C   0  0  0  0  0  0  0  0  0  0  0  0
   -2.7786   -0.2617    0.0000 C   0  0  0  0  0  0  0  0  0  0  0  0
    2.0169    2.2789    0.0000 C   0  0  0  0  0  0  0  0  0  0  0  0
    3.9812    1.5976    0.0000 C   0  0  0  0  0  0  0  0  0  0  0  0
  1  2  1  0
  2  3  1  0
  3  4  1  0
  4  5  1  0
  5  6  1  0
  2  6  1  0
  6  7  1  0
  7  8  1  0
  8  9  2  0
  2  9  1  0
  9 10  1  0
 10 11  2  0
 11 12  1  0
 12 13  2  0
  8 13  1  0
 11 14  1  0
 14 15  1  0
 15 16  2  0
 15 17  1  0
 17 18  1  0
 18 19  2  0
 19 20  1  0
 20 21  2  0
 21 22  1  0
 22 23  2  0
 18 23  1  0
  7 24  1  0
  5 25  1  0
M  END
>  <name>  (64) 
phenserine

>  <logBB>  (64) 
1

>  <logBB_class>  (64) 
1

>  <HAC>  (64) 
25

$$$$
MolID_253
     RDKit          2D

 23 25  0  0  0  0  0  0  0  0999 V2000
    2.1752    1.1624    0.0000 C   0  0  0  0  0  0  0  0  0  0  0  0
    1.4607    0.7499    0.0000 C   0  0  0  0  0  0  0  0  0  0  0  0
    1.4607   -0.0751    0.0000 C   0  0  0  0  0  0  0  0  0  0  0  0
    0.7463   -0.4876    0.0000 C   0  0  0  0  0  0  0  0  0  0  0  0
    0.7463   -1.3126    0.0000 C   0  0  0  0  0  0  0  0  0  0  0  0
    1.4137   -1.7976    0.0000 C   0  0  0  0  0  0  0  0  0  0  0  0
    2.1983   -1.5426    0.0000 O   0  0  0  0  0  0  0  0  0  0  0  0
    1.1588   -2.5822    0.0000 N   0  0  0  0  0  0  0  0  0  0  0  0
    0.3338   -2.5822    0.0000 N   0  0  0  0  0  0  0  0  0  0  0  0
    0.0788   -1.7976    0.0000 C   0  0  0  0  0  0  0  0  0  0  0  0
   -0.7058   -1.5426    0.0000 O   0  0  0  0  0  0  0  0  0  0  0  0
   -0.1512   -3.2496    0.0000 C   0  0  0  0  0  0  0  0  0  0  0  0
    0.1844   -4.0033    0.0000 C   0  0  0  0  0  0  0  0  0  0  0  0
   -0.3005   -4.6707    0.0000 C   0  0  0  0  0  0  0  0  0  0  0  0
   -1.1210   -4.5845    0.0000 C   0  0  0  0  0  0  0  0  0  0  0  0
   -1.4566   -3.8308    0.0000 C   0  0  0  0  0  0  0  0  0  0  0  0
   -0.9716   -3.1634    0.0000 C   0  0  0  0  0  0  0  0  0  0  0  0
    1.6437   -3.2496    0.0000 C   0  0  0  0  0  0  0  0  0  0  0  0
    2.4642   -3.1634    0.0000 C   0  0  0  0  0  0  0  0  0  0  0  0
    2.9491   -3.8308    0.0000 C   0  0  0  0  0  0  0  0  0  0  0  0
    2.6135   -4.5845    0.0000 C   0  0  0  0  0  0  0  0  0  0  0  0
    1.7931   -4.6707    0.0000 C   0  0  0  0  0  0  0  0  0  0  0  0
    1.3081   -4.0033    0.0000 C   0  0  0  0  0  0  0  0  0  0  0  0
  1  2  1  0
  2  3  1  0
  3  4  1  0
  4  5  1  0
  5  6  1  0
  6  7  2  0
  6  8  1  0
  8  9  1  0
  9 10  1  0
  5 10  2  0
 10 11  1  0
  9 12  1  0
 12 13  2  0
 13 14  1  0
 14 15  2  0
 15 16  1  0
 16 17  2  0
 12 17  1  0
  8 18  1  0
 18 19  2  0
 19 20  1  0
 20 21  2  0
 21 22  1  0
 22 23  2  0
 18 23  1  0
M  END
>  <name>  (65) 
phenylbutazone

>  <logBB>  (65) 
-0.52

>  <logBB_class>  (65) 
0

>  <HAC>  (65) 
23

$$$$
MolID_254
     RDKit          2D

 13 13  0  0  0  0  0  0  0  0999 V2000
    1.0039    1.4070    0.0000 O   0  0  0  0  0  0  0  0  0  0  0  0
    0.2894    1.8195    0.0000 N   0  0  0  0  0  0  0  0  0  0  0  0
    0.2894    2.6445    0.0000 C   0  0  0  0  0  0  0  0  0  0  0  0
    0.2894    3.4695    0.0000 C   0  0  0  0  0  0  0  0  0  0  0  0
   -0.5356    2.6445    0.0000 C   0  0  0  0  0  0  0  0  0  0  0  0
    1.1144    2.6445    0.0000 C   0  0  0  0  0  0  0  0  0  0  0  0
   -0.4251    1.4070    0.0000 C   0  0  0  0  0  0  0  0  0  0  0  0
   -0.4251    0.5820    0.0000 C   0  0  0  0  0  0  0  0  0  0  0  0
    0.2894    0.1695    0.0000 C   0  0  0  0  0  0  0  0  0  0  0  0
    0.2894   -0.6555    0.0000 C   0  0  0  0  0  0  0  0  0  0  0  0
   -0.4251   -1.0680    0.0000 C   0  0  0  0  0  0  0  0  0  0  0  0
   -1.1395   -0.6555    0.0000 C   0  0  0  0  0  0  0  0  0  0  0  0
   -1.1395    0.1695    0.0000 C   0  0  0  0  0  0  0  0  0  0  0  0
  1  2  1  0
  2  3  1  0
  3  4  1  0
  3  5  1  0
  3  6  1  0
  2  7  2  0
  7  8  1  0
  8  9  2  0
  9 10  1  0
 10 11  2  0
 11 12  1  0
 12 13  2  0
  8 13  1  0
M  CHG  2   1  -1   2   1
M  END
>  <name>  (66) 
Phenyl-N-tert-butylnitrone

>  <logBB>  (66) 
0.05

>  <logBB_class>  (66) 
1

>  <HAC>  (66) 
13

$$$$
MolID_255
     RDKit          2D

 20 22  0  0  0  0  0  0  0  0999 V2000
    2.1254   -0.6083    0.0000 C   0  0  0  0  0  0  0  0  0  0  0  0
    2.3957    0.1711    0.0000 C   0  0  0  0  0  0  0  0  0  0  0  0
    3.0535   -0.3269    0.0000 C   0  0  0  0  0  0  0  0  0  0  0  0
    3.7303    0.1448    0.0000 C   0  0  0  0  0  0  0  0  0  0  0  0
    3.4909    0.9343    0.0000 N   0  0  0  0  0  0  0  0  0  0  0  0
    2.6661    0.9506    0.0000 C   0  0  0  0  0  0  0  0  0  0  0  0
    2.0083    1.4486    0.0000 N   0  0  0  0  0  0  0  0  0  0  0  0
    1.3315    0.9769    0.0000 C   0  0  0  0  0  0  0  0  0  0  0  0
    1.5709    0.1874    0.0000 C   0  0  0  0  0  0  0  0  0  0  0  0
    1.0069   -0.4147    0.0000 C   0  0  0  0  0  0  0  0  0  0  0  0
    0.2034   -0.2273    0.0000 C   0  0  0  0  0  0  0  0  0  0  0  0
   -0.0360    0.5622    0.0000 C   0  0  0  0  0  0  0  0  0  0  0  0
    0.5280    1.1643    0.0000 C   0  0  0  0  0  0  0  0  0  0  0  0
   -0.3606   -0.8294    0.0000 O   0  0  0  0  0  0  0  0  0  0  0  0
   -1.1640   -0.6420    0.0000 C   0  0  0  0  0  0  0  0  0  0  0  0
   -1.4034    0.1475    0.0000 O   0  0  0  0  0  0  0  0  0  0  0  0
   -1.7280   -1.2441    0.0000 N   0  0  0  0  0  0  0  0  0  0  0  0
   -2.5315   -1.0567    0.0000 C   0  0  0  0  0  0  0  0  0  0  0  0
    2.0246    2.2734    0.0000 C   0  0  0  0  0  0  0  0  0  0  0  0
    3.9889    1.5921    0.0000 C   0  0  0  0  0  0  0  0  0  0  0  0
  1  2  1  0
  2  3  1  0
  3  4  1  0
  4  5  1  0
  5  6  1  0
  2  6  1  0
  6  7  1  0
  7  8  1  0
  8  9  2  0
  2  9  1  0
  9 10  1  0
 10 11  2  0
 11 12  1  0
 12 13  2  0
  8 13  1  0
 11 14  1  0
 14 15  1  0
 15 16  2  0
 15 17  1  0
 17 18  1  0
  7 19  1  0
  5 20  1  0
M  END
>  <name>  (67) 
physostigmine

>  <logBB>  (67) 
0.08

>  <logBB_class>  (67) 
1

>  <HAC>  (67) 
20

$$$$
MolID_257
     RDKit          2D

 25 27  0  0  0  0  0  0  0  0999 V2000
   -0.6734   -3.6386    0.0000 C   0  0  0  0  0  0  0  0  0  0  0  0
    0.0411   -3.2261    0.0000 C   0  0  0  0  0  0  0  0  0  0  0  0
    0.7555   -3.6386    0.0000 C   0  0  0  0  0  0  0  0  0  0  0  0
    1.4700   -3.2261    0.0000 N   0  0  0  0  0  0  0  0  0  0  0  0
    2.1845   -3.6386    0.0000 C   0  0  0  0  0  0  0  0  0  0  0  0
    2.8989   -3.2261    0.0000 C   0  0  0  0  0  0  0  0  0  0  0  0
    2.8989   -2.4011    0.0000 C   0  0  0  0  0  0  0  0  0  0  0  0
    3.6134   -1.9886    0.0000 C   0  0  0  0  0  0  0  0  0  0  0  0
    3.6134   -1.1636    0.0000 C   0  0  0  0  0  0  0  0  0  0  0  0
    4.3279   -0.7511    0.0000 C   0  0  0  0  0  0  0  0  0  0  0  0
    5.0424   -1.1636    0.0000 C   0  0  0  0  0  0  0  0  0  0  0  0
    5.0424   -1.9886    0.0000 C   0  0  0  0  0  0  0  0  0  0  0  0
    4.3279   -2.4011    0.0000 C   0  0  0  0  0  0  0  0  0  0  0  0
    4.3279   -3.2261    0.0000 C   0  0  0  0  0  0  0  0  0  0  0  0
    5.0424   -3.6386    0.0000 C   0  0  0  0  0  0  0  0  0  0  0  0
    5.7568   -3.2261    0.0000 C   0  0  0  0  0  0  0  0  0  0  0  0
    5.7568   -2.4011    0.0000 Cl  0  0  0  0  0  0  0  0  0  0  0  0
    6.4713   -3.6386    0.0000 C   0  0  0  0  0  0  0  0  0  0  0  0
    6.4713   -4.4636    0.0000 C   0  0  0  0  0  0  0  0  0  0  0  0
    5.7568   -4.8761    0.0000 C   0  0  0  0  0  0  0  0  0  0  0  0
    5.0424   -4.4636    0.0000 C   0  0  0  0  0  0  0  0  0  0  0  0
    3.6134   -3.6386    0.0000 N   0  0  0  0  0  0  0  0  0  0  0  0
    2.1845   -4.4636    0.0000 O   0  0  0  0  0  0  0  0  0  0  0  0
    1.4700   -2.4011    0.0000 C   0  0  0  0  0  0  0  0  0  0  0  0
    0.7555   -4.4636    0.0000 C   0  0  0  0  0  0  0  0  0  0  0  0
  1  2  1  0
  2  3  1  0
  3  4  1  0
  4  5  1  0
  5  6  1  0
  6  7  2  0
  7  8  1  0
  8  9  2  0
  9 10  1  0
 10 11  2  0
 11 12  1  0
 12 13  2  0
  8 13  1  0
 13 14  1  0
 14 15  1  0
 15 16  2  0
 16 17  1  0
 16 18  1  0
 18 19  2  0
 19 20  1  0
 20 21  2  0
 15 21  1  0
 14 22  2  0
  6 22  1  0
  5 23  2  0
  4 24  1  0
  3 25  1  0
M  END
>  <name>  (68) 
PK-11195

>  <logBB>  (68) 
0.48

>  <logBB_class>  (68) 
1

>  <HAC>  (68) 
25

$$$$
MolID_258
     RDKit          2D

 16 17  0  0  0  0  0  0  0  0999 V2000
    0.8314    0.3388    0.0000 C   0  0  0  0  0  0  0  0  0  0  0  0
    0.5492   -0.4364    0.0000 C   0  0  0  0  0  0  0  0  0  0  0  0
    1.0795   -1.0684    0.0000 C   0  0  0  0  0  0  0  0  0  0  0  0
    1.7940   -1.4809    0.0000 C   0  0  0  0  0  0  0  0  0  0  0  0
    2.5084   -1.0684    0.0000 O   0  0  0  0  0  0  0  0  0  0  0  0
    1.7940   -2.3059    0.0000 N   0  0  0  0  0  0  0  0  0  0  0  0
    1.0795   -2.7184    0.0000 C   0  0  0  0  0  0  0  0  0  0  0  0
    0.3650   -2.3059    0.0000 N   0  0  0  0  0  0  0  0  0  0  0  0
    0.3650   -1.4809    0.0000 C   0  0  0  0  0  0  0  0  0  0  0  0
   -0.3495   -1.0684    0.0000 O   0  0  0  0  0  0  0  0  0  0  0  0
    1.6098   -0.4364    0.0000 C   0  0  0  0  0  0  0  0  0  0  0  0
    1.3276    0.3388    0.0000 C   0  0  0  0  0  0  0  0  0  0  0  0
    1.8579    0.9708    0.0000 C   0  0  0  0  0  0  0  0  0  0  0  0
    2.6704    0.8275    0.0000 C   0  0  0  0  0  0  0  0  0  0  0  0
    2.9526    0.0523    0.0000 C   0  0  0  0  0  0  0  0  0  0  0  0
    2.4223   -0.5797    0.0000 C   0  0  0  0  0  0  0  0  0  0  0  0
  1  2  1  0
  2  3  1  0
  3  4  1  0
  4  5  2  0
  4  6  1  0
  6  7  1  0
  7  8  1  0
  8  9  1  0
  3  9  1  0
  9 10  2  0
  3 11  1  0
 11 12  2  0
 12 13  1  0
 13 14  2  0
 14 15  1  0
 15 16  2  0
 11 16  1  0
M  END
>  <name>  (69) 
primidone

>  <logBB>  (69) 
-0.07

>  <logBB_class>  (69) 
0

>  <HAC>  (69) 
16

$$$$
MolID_259
     RDKit          2D

 17 17  0  0  0  0  0  0  0  0999 V2000
   -3.6176   -1.1625    0.0000 C   0  0  0  0  0  0  0  0  0  0  0  0
   -2.9031   -1.5750    0.0000 C   0  0  0  0  0  0  0  0  0  0  0  0
   -2.1886   -1.1625    0.0000 N   0  0  0  0  0  0  0  0  0  0  0  0
   -2.1886   -0.3375    0.0000 C   0  0  0  0  0  0  0  0  0  0  0  0
   -1.4742    0.0750    0.0000 C   0  0  0  0  0  0  0  0  0  0  0  0
   -1.4742   -1.5750    0.0000 C   0  0  0  0  0  0  0  0  0  0  0  0
   -0.7597   -1.1625    0.0000 C   0  0  0  0  0  0  0  0  0  0  0  0
   -0.0452   -1.5750    0.0000 O   0  0  0  0  0  0  0  0  0  0  0  0
    0.6693   -1.1625    0.0000 C   0  0  0  0  0  0  0  0  0  0  0  0
    1.3837   -1.5750    0.0000 O   0  0  0  0  0  0  0  0  0  0  0  0
    0.6693   -0.3375    0.0000 C   0  0  0  0  0  0  0  0  0  0  0  0
   -0.0452    0.0750    0.0000 C   0  0  0  0  0  0  0  0  0  0  0  0
   -0.0452    0.9000    0.0000 C   0  0  0  0  0  0  0  0  0  0  0  0
    0.6693    1.3125    0.0000 C   0  0  0  0  0  0  0  0  0  0  0  0
    1.3837    0.9000    0.0000 C   0  0  0  0  0  0  0  0  0  0  0  0
    1.3837    0.0750    0.0000 C   0  0  0  0  0  0  0  0  0  0  0  0
    0.6693    2.1375    0.0000 N   0  0  0  0  0  0  0  0  0  0  0  0
  1  2  1  0
  2  3  1  0
  3  4  1  0
  4  5  1  0
  3  6  1  0
  6  7  1  0
  7  8  1  0
  8  9  1  0
  9 10  2  0
  9 11  1  0
 11 12  2  0
 12 13  1  0
 13 14  2  0
 14 15  1  0
 15 16  2  0
 11 16  1  0
 14 17  1  0
M  END
>  <name>  (70) 
procaine

>  <logBB>  (70) 
0.05

>  <logBB_class>  (70) 
1

>  <HAC>  (70) 
17

$$$$
MolID_260
     RDKit          2D

 20 22  0  0  0  0  0  0  0  0999 V2000
    2.1445    1.2001    0.0000 C   0  0  0  0  0  0  0  0  0  0  0  0
    2.8590    0.7876    0.0000 N   0  0  0  0  0  0  0  0  0  0  0  0
    2.8590   -0.0374    0.0000 C   0  0  0  0  0  0  0  0  0  0  0  0
    3.5734    1.2001    0.0000 C   0  0  0  0  0  0  0  0  0  0  0  0
    4.2879    0.7876    0.0000 C   0  0  0  0  0  0  0  0  0  0  0  0
    5.0024    1.2001    0.0000 C   0  0  0  0  0  0  0  0  0  0  0  0
    5.7168    0.7876    0.0000 N   0  0  0  0  0  0  0  0  0  0  0  0
    6.4313    1.2001    0.0000 C   0  0  0  0  0  0  0  0  0  0  0  0
    6.4313    2.0251    0.0000 C   0  0  0  0  0  0  0  0  0  0  0  0
    7.1458    2.4376    0.0000 C   0  0  0  0  0  0  0  0  0  0  0  0
    7.8602    2.0251    0.0000 C   0  0  0  0  0  0  0  0  0  0  0  0
    7.8602    1.2001    0.0000 C   0  0  0  0  0  0  0  0  0  0  0  0
    7.1458    0.7876    0.0000 C   0  0  0  0  0  0  0  0  0  0  0  0
    7.1458   -0.0374    0.0000 S   0  0  0  0  0  0  0  0  0  0  0  0
    6.4313   -0.4499    0.0000 C   0  0  0  0  0  0  0  0  0  0  0  0
    6.4313   -1.2749    0.0000 C   0  0  0  0  0  0  0  0  0  0  0  0
    5.7168   -1.6874    0.0000 C   0  0  0  0  0  0  0  0  0  0  0  0
    5.0024   -1.2749    0.0000 C   0  0  0  0  0  0  0  0  0  0  0  0
    5.0024   -0.4499    0.0000 C   0  0  0  0  0  0  0  0  0  0  0  0
    5.7168   -0.0374    0.0000 C   0  0  0  0  0  0  0  0  0  0  0  0
  1  2  1  0
  2  3  1  0
  2  4  1  0
  4  5  1  0
  5  6  1  0
  6  7  1  0
  7  8  1  0
  8  9  2  0
  9 10  1  0
 10 11  2  0
 11 12  1  0
 12 13  2  0
  8 13  1  0
 13 14  1  0
 14 15  1  0
 15 16  2  0
 16 17  1  0
 17 18  2  0
 18 19  1  0
 19 20  2  0
 15 20  1  0
  7 20  1  0
M  END
>  <name>  (71) 
promazine

>  <logBB>  (71) 
1.08

>  <logBB_class>  (71) 
1

>  <HAC>  (71) 
20

$$$$
MolID_261
     RDKit          2D

  3  2  0  0  0  0  0  0  0  0999 V2000
    1.2375   -0.7145    0.0000 C   0  0  0  0  0  0  0  0  0  0  0  0
    0.8250    0.0000    0.0000 C   0  0  0  0  0  0  0  0  0  0  0  0
    0.0000    0.0000    0.0000 C   0  0  0  0  0  0  0  0  0  0  0  0
  1  2  1  0
  2  3  2  0
M  END
>  <name>  (72) 
Propene

>  <logBB>  (72) 
-0.06

>  <logBB_class>  (72) 
0

>  <HAC>  (72) 
3

$$$$
MolID_262
     RDKit          2D

 13 13  0  0  0  0  0  0  0  0999 V2000
   -0.0590    2.5971    0.0000 C   0  0  0  0  0  0  0  0  0  0  0  0
    0.6555    2.1846    0.0000 C   0  0  0  0  0  0  0  0  0  0  0  0
    1.3700    2.5971    0.0000 C   0  0  0  0  0  0  0  0  0  0  0  0
    0.6555    1.3596    0.0000 C   0  0  0  0  0  0  0  0  0  0  0  0
    1.3700    0.9471    0.0000 C   0  0  0  0  0  0  0  0  0  0  0  0
    1.3700    0.1221    0.0000 C   0  0  0  0  0  0  0  0  0  0  0  0
    0.6555   -0.2904    0.0000 C   0  0  0  0  0  0  0  0  0  0  0  0
   -0.0590    0.1221    0.0000 C   0  0  0  0  0  0  0  0  0  0  0  0
   -0.0590    0.9471    0.0000 C   0  0  0  0  0  0  0  0  0  0  0  0
    2.0845   -0.2904    0.0000 C   0  0  0  0  0  0  0  0  0  0  0  0
    2.7989    0.1221    0.0000 C   0  0  0  0  0  0  0  0  0  0  0  0
    2.0845   -1.1154    0.0000 C   0  0  0  0  0  0  0  0  0  0  0  0
    2.0845    1.3596    0.0000 O   0  0  0  0  0  0  0  0  0  0  0  0
  1  2  1  0
  2  3  1  0
  2  4  1  0
  4  5  2  0
  5  6  1  0
  6  7  2  0
  7  8  1  0
  8  9  2  0
  4  9  1  0
  6 10  1  0
 10 11  1  0
 10 12  1  0
  5 13  1  0
M  END
>  <name>  (73) 
propofol

>  <logBB>  (73) 
0.63

>  <logBB_class>  (73) 
1

>  <HAC>  (73) 
13

$$$$
MolID_263
     RDKit          2D

 19 20  0  0  0  0  0  0  0  0999 V2000
    4.3164    0.0238    0.0000 C   0  0  0  0  0  0  0  0  0  0  0  0
    5.0309    0.4363    0.0000 C   0  0  0  0  0  0  0  0  0  0  0  0
    5.0309    1.2613    0.0000 C   0  0  0  0  0  0  0  0  0  0  0  0
    5.7454    0.0238    0.0000 N   0  0  0  0  0  0  0  0  0  0  0  0
    6.4598    0.4363    0.0000 C   0  0  0  0  0  0  0  0  0  0  0  0
    7.1743    0.0238    0.0000 C   0  0  0  0  0  0  0  0  0  0  0  0
    7.8888    0.4363    0.0000 C   0  0  0  0  0  0  0  0  0  0  0  0
    8.6033    0.0238    0.0000 O   0  0  0  0  0  0  0  0  0  0  0  0
    9.3177    0.4363    0.0000 C   0  0  0  0  0  0  0  0  0  0  0  0
    9.3177    1.2613    0.0000 C   0  0  0  0  0  0  0  0  0  0  0  0
   10.0322    1.6738    0.0000 C   0  0  0  0  0  0  0  0  0  0  0  0
   10.7467    1.2613    0.0000 C   0  0  0  0  0  0  0  0  0  0  0  0
   10.7467    0.4363    0.0000 C   0  0  0  0  0  0  0  0  0  0  0  0
   11.4611    0.0238    0.0000 C   0  0  0  0  0  0  0  0  0  0  0  0
   11.4611   -0.8012    0.0000 C   0  0  0  0  0  0  0  0  0  0  0  0
   10.7467   -1.2137    0.0000 C   0  0  0  0  0  0  0  0  0  0  0  0
   10.0322   -0.8012    0.0000 C   0  0  0  0  0  0  0  0  0  0  0  0
   10.0322    0.0238    0.0000 C   0  0  0  0  0  0  0  0  0  0  0  0
    7.1743   -0.8012    0.0000 O   0  0  0  0  0  0  0  0  0  0  0  0
  1  2  1  0
  2  3  1  0
  2  4  1  0
  4  5  1  0
  5  6  1  0
  6  7  1  0
  7  8  1  0
  8  9  1  0
  9 10  2  0
 10 11  1  0
 11 12  2  0
 12 13  1  0
 13 14  2  0
 14 15  1  0
 15 16  2  0
 16 17  1  0
 17 18  2  0
 13 18  1  0
  9 18  1  0
  6 19  1  0
M  END
>  <name>  (74) 
propranolol

>  <logBB>  (74) 
0.84

>  <logBB_class>  (74) 
1

>  <HAC>  (74) 
19

$$$$
MolID_264
     RDKit          2D

  7  6  0  0  0  0  0  0  0  0999 V2000
   -0.2306    0.6731    0.0000 C   0  0  0  0  0  0  0  0  0  0  0  0
    0.4839    1.0856    0.0000 C   0  0  0  0  0  0  0  0  0  0  0  0
    1.1984    0.6731    0.0000 C   0  0  0  0  0  0  0  0  0  0  0  0
    1.9128    1.0856    0.0000 O   0  0  0  0  0  0  0  0  0  0  0  0
    2.6273    0.6731    0.0000 C   0  0  0  0  0  0  0  0  0  0  0  0
    3.3418    1.0856    0.0000 O   0  0  0  0  0  0  0  0  0  0  0  0
    2.6273   -0.1519    0.0000 C   0  0  0  0  0  0  0  0  0  0  0  0
  1  2  1  0
  2  3  1  0
  3  4  1  0
  4  5  1  0
  5  6  2  0
  5  7  1  0
M  END
>  <name>  (75) 
propylacetate

>  <logBB>  (75) 
0.12

>  <logBB_class>  (75) 
1

>  <HAC>  (75) 
7

$$$$
MolID_265
     RDKit          2D

 11 11  0  0  0  0  0  0  0  0999 V2000
   -0.7586    2.1984    0.0000 C   0  0  0  0  0  0  0  0  0  0  0  0
   -0.0441    2.6109    0.0000 C   0  0  0  0  0  0  0  0  0  0  0  0
    0.6704    2.1984    0.0000 C   0  0  0  0  0  0  0  0  0  0  0  0
    0.6704    1.3734    0.0000 C   0  0  0  0  0  0  0  0  0  0  0  0
    1.3848    0.9609    0.0000 C   0  0  0  0  0  0  0  0  0  0  0  0
    1.3848    0.1359    0.0000 C   0  0  0  0  0  0  0  0  0  0  0  0
    0.6704   -0.2766    0.0000 C   0  0  0  0  0  0  0  0  0  0  0  0
   -0.0441    0.1359    0.0000 C   0  0  0  0  0  0  0  0  0  0  0  0
   -0.0441    0.9609    0.0000 C   0  0  0  0  0  0  0  0  0  0  0  0
   -0.0441    3.4359    0.0000 N   0  0  0  0  0  0  0  0  0  0  0  0
   -0.7586    3.8484    0.0000 C   0  0  0  0  0  0  0  0  0  0  0  0
  1  2  1  0
  2  3  1  0
  3  4  1  0
  4  5  1  0
  5  6  1  0
  6  7  1  0
  7  8  1  0
  8  9  1  0
  4  9  1  0
  2 10  1  0
 10 11  1  0
M  END
>  <name>  (76) 
propylhexedrine

>  <logBB>  (76) 
1.08

>  <logBB_class>  (76) 
1

>  <HAC>  (76) 
11

$$$$
MolID_266
     RDKit          2D

  9  9  0  0  0  0  0  0  0  0999 V2000
    0.7161    2.0374    0.0000 C   0  0  0  0  0  0  0  0  0  0  0  0
    0.7161    1.2124    0.0000 C   0  0  0  0  0  0  0  0  0  0  0  0
    1.4306    0.7999    0.0000 C   0  0  0  0  0  0  0  0  0  0  0  0
    1.4306   -0.0251    0.0000 C   0  0  0  0  0  0  0  0  0  0  0  0
    0.7161   -0.4376    0.0000 C   0  0  0  0  0  0  0  0  0  0  0  0
    0.0016   -0.0251    0.0000 C   0  0  0  0  0  0  0  0  0  0  0  0
    0.0016    0.7999    0.0000 C   0  0  0  0  0  0  0  0  0  0  0  0
    0.7161   -1.2626    0.0000 C   0  0  0  0  0  0  0  0  0  0  0  0
    2.1450   -0.4376    0.0000 C   0  0  0  0  0  0  0  0  0  0  0  0
  1  2  1  0
  2  3  2  0
  3  4  1  0
  4  5  2  0
  5  6  1  0
  6  7  2  0
  2  7  1  0
  5  8  1  0
  4  9  1  0
M  END
>  <name>  (77) 
pseudocumene

>  <logBB>  (77) 
0.16

>  <logBB_class>  (77) 
1

>  <HAC>  (77) 
9

$$$$
MolID_267
     RDKit          2D

  8  8  0  0  0  0  0  0  0  0999 V2000
    0.7145    2.0625    0.0000 C   0  0  0  0  0  0  0  0  0  0  0  0
    0.7145    1.2375    0.0000 C   0  0  0  0  0  0  0  0  0  0  0  0
    1.4290    0.8250    0.0000 C   0  0  0  0  0  0  0  0  0  0  0  0
    1.4290    0.0000    0.0000 C   0  0  0  0  0  0  0  0  0  0  0  0
    0.7145   -0.4125    0.0000 C   0  0  0  0  0  0  0  0  0  0  0  0
    0.0000    0.0000    0.0000 C   0  0  0  0  0  0  0  0  0  0  0  0
    0.0000    0.8250    0.0000 C   0  0  0  0  0  0  0  0  0  0  0  0
    0.7145   -1.2375    0.0000 C   0  0  0  0  0  0  0  0  0  0  0  0
  1  2  1  0
  2  3  2  0
  3  4  1  0
  4  5  2  0
  5  6  1  0
  6  7  2  0
  2  7  1  0
  5  8  1  0
M  END
>  <name>  (78) 
p-xylene

>  <logBB>  (78) 
0.33

>  <logBB_class>  (78) 
1

>  <HAC>  (78) 
8

$$$$
MolID_268
     RDKit          2D

 16 19  0  0  0  0  0  0  0  0999 V2000
    5.4434    0.4125    0.0000 C   0  0  0  0  0  0  0  0  0  0  0  0
    5.0309    1.1270    0.0000 C   0  0  0  0  0  0  0  0  0  0  0  0
    4.2059    1.1270    0.0000 C   0  0  0  0  0  0  0  0  0  0  0  0
    3.7934    0.4125    0.0000 C   0  0  0  0  0  0  0  0  0  0  0  0
    4.2059   -0.3020    0.0000 C   0  0  0  0  0  0  0  0  0  0  0  0
    5.0309   -0.3020    0.0000 C   0  0  0  0  0  0  0  0  0  0  0  0
    3.7934   -1.0164    0.0000 C   0  0  0  0  0  0  0  0  0  0  0  0
    2.9684   -1.0164    0.0000 C   0  0  0  0  0  0  0  0  0  0  0  0
    2.5559   -0.3020    0.0000 C   0  0  0  0  0  0  0  0  0  0  0  0
    1.7309   -0.3020    0.0000 C   0  0  0  0  0  0  0  0  0  0  0  0
    1.3184    0.4125    0.0000 C   0  0  0  0  0  0  0  0  0  0  0  0
    1.7309    1.1270    0.0000 C   0  0  0  0  0  0  0  0  0  0  0  0
    2.5559    1.1270    0.0000 C   0  0  0  0  0  0  0  0  0  0  0  0
    2.9684    0.4125    0.0000 C   0  0  0  0  0  0  0  0  0  0  0  0
    2.9684    1.8414    0.0000 C   0  0  0  0  0  0  0  0  0  0  0  0
    3.7934    1.8414    0.0000 C   0  0  0  0  0  0  0  0  0  0  0  0
  1  2  2  0
  2  3  1  0
  3  4  2  0
  4  5  1  0
  5  6  2  0
  1  6  1  0
  5  7  1  0
  7  8  2  0
  8  9  1  0
  9 10  2  0
 10 11  1  0
 11 12  2  0
 12 13  1  0
 13 14  2  0
  9 14  1  0
  4 14  1  0
 13 15  1  0
 15 16  2  0
  3 16  1  0
M  END
>  <name>  (79) 
pyrene

>  <logBB>  (79) 
0.23

>  <logBB_class>  (79) 
1

>  <HAC>  (79) 
16

$$$$
MolID_269
     RDKit          2D

 21 22  0  0  0  0  0  0  0  0999 V2000
    2.1052   -1.9508    0.0000 C   0  0  0  0  0  0  0  0  0  0  0  0
    2.8197   -1.5383    0.0000 N   0  0  0  0  0  0  0  0  0  0  0  0
    2.8197   -0.7133    0.0000 C   0  0  0  0  0  0  0  0  0  0  0  0
    3.5342   -1.9508    0.0000 C   0  0  0  0  0  0  0  0  0  0  0  0
    4.2486   -1.5383    0.0000 C   0  0  0  0  0  0  0  0  0  0  0  0
    4.9631   -1.9508    0.0000 N   0  0  0  0  0  0  0  0  0  0  0  0
    5.6776   -1.5383    0.0000 C   0  0  0  0  0  0  0  0  0  0  0  0
    6.3921   -1.9508    0.0000 C   0  0  0  0  0  0  0  0  0  0  0  0
    7.1065   -1.5383    0.0000 C   0  0  0  0  0  0  0  0  0  0  0  0
    7.8210   -1.9508    0.0000 C   0  0  0  0  0  0  0  0  0  0  0  0
    7.8210   -2.7758    0.0000 C   0  0  0  0  0  0  0  0  0  0  0  0
    7.1065   -3.1883    0.0000 C   0  0  0  0  0  0  0  0  0  0  0  0
    6.3921   -2.7758    0.0000 C   0  0  0  0  0  0  0  0  0  0  0  0
    8.5355   -3.1883    0.0000 O   0  0  0  0  0  0  0  0  0  0  0  0
    9.2499   -2.7758    0.0000 C   0  0  0  0  0  0  0  0  0  0  0  0
    4.9631   -2.7758    0.0000 C   0  0  0  0  0  0  0  0  0  0  0  0
    5.6776   -3.1883    0.0000 C   0  0  0  0  0  0  0  0  0  0  0  0
    5.6776   -4.0133    0.0000 C   0  0  0  0  0  0  0  0  0  0  0  0
    4.9631   -4.4258    0.0000 C   0  0  0  0  0  0  0  0  0  0  0  0
    4.2486   -4.0133    0.0000 C   0  0  0  0  0  0  0  0  0  0  0  0
    4.2486   -3.1883    0.0000 N   0  0  0  0  0  0  0  0  0  0  0  0
  1  2  1  0
  2  3  1  0
  2  4  1  0
  4  5  1  0
  5  6  1  0
  6  7  1  0
  7  8  1  0
  8  9  2  0
  9 10  1  0
 10 11  2  0
 11 12  1  0
 12 13  2  0
  8 13  1  0
 11 14  1  0
 14 15  1  0
  6 16  1  0
 16 17  2  0
 17 18  1  0
 18 19  2  0
 19 20  1  0
 20 21  2  0
 16 21  1  0
M  END
>  <name>  (80) 
pyrilamine

>  <logBB>  (80) 
0.49

>  <logBB_class>  (80) 
1

>  <HAC>  (80) 
21

$$$$
MolID_270
     RDKit          2D

 24 27  0  0  0  0  0  0  0  0999 V2000
   -0.8441   -2.5565    0.0000 O   0  0  0  0  0  0  0  0  0  0  0  0
   -0.1296   -2.1440    0.0000 C   0  0  0  0  0  0  0  0  0  0  0  0
    0.5848   -2.5565    0.0000 C   0  0  0  0  0  0  0  0  0  0  0  0
    1.2993   -2.1440    0.0000 C   0  0  0  0  0  0  0  0  0  0  0  0
    2.0138   -2.5565    0.0000 C   0  0  0  0  0  0  0  0  0  0  0  0
    2.0138   -3.3815    0.0000 C   0  0  0  0  0  0  0  0  0  0  0  0
    2.7283   -3.7940    0.0000 C   0  0  0  0  0  0  0  0  0  0  0  0
    2.7283   -4.6190    0.0000 C   0  0  0  0  0  0  0  0  0  0  0  0
    1.4368   -2.6940    0.0000 C   0  0  0  0  0  0  0  0  0  0  0  0
    1.4368   -3.2440    0.0000 C   0  0  0  0  0  0  0  0  0  0  0  0
    1.2993   -3.7940    0.0000 C   0  0  0  0  0  0  0  0  0  0  0  0
    0.5848   -3.3815    0.0000 C   0  0  0  0  0  0  0  0  0  0  0  0
   -0.1296   -1.3190    0.0000 C   0  0  0  0  0  0  0  0  0  0  0  0
   -0.8441   -0.9065    0.0000 C   0  0  0  0  0  0  0  0  0  0  0  0
   -1.5586   -1.3190    0.0000 C   0  0  0  0  0  0  0  0  0  0  0  0
   -2.2730   -0.9065    0.0000 C   0  0  0  0  0  0  0  0  0  0  0  0
   -2.2730   -0.0815    0.0000 C   0  0  0  0  0  0  0  0  0  0  0  0
   -1.5586    0.3310    0.0000 C   0  0  0  0  0  0  0  0  0  0  0  0
   -0.8441   -0.0815    0.0000 C   0  0  0  0  0  0  0  0  0  0  0  0
   -0.1296    0.3310    0.0000 N   0  0  0  0  0  0  0  0  0  0  0  0
    0.5848   -0.0815    0.0000 C   0  0  0  0  0  0  0  0  0  0  0  0
    0.5848   -0.9065    0.0000 C   0  0  0  0  0  0  0  0  0  0  0  0
   -2.9875   -1.3190    0.0000 O   0  0  0  0  0  0  0  0  0  0  0  0
   -2.9875   -2.1440    0.0000 C   0  0  0  0  0  0  0  0  0  0  0  0
  1  2  1  0
  2  3  1  0
  3  4  1  0
  4  5  1  0
  5  6  1  0
  6  7  1  0
  7  8  2  3
  4  9  1  0
  9 10  1  0
 10 11  1  0
  6 11  1  0
 11 12  1  0
  3 12  1  0
  2 13  1  0
 13 14  1  0
 14 15  2  0
 15 16  1  0
 16 17  2  0
 17 18  1  0
 18 19  2  0
 14 19  1  0
 19 20  1  0
 20 21  2  0
 21 22  1  0
 13 22  2  0
 16 23  1  0
 23 24  1  0
M  END
>  <name>  (81) 
quinidine

>  <logBB>  (81) 
0.1

>  <logBB_class>  (81) 
1

>  <HAC>  (81) 
24

$$$$
MolID_271
     RDKit          2D

 21 21  0  0  0  0  0  0  0  0999 V2000
    0.4033   -2.1585    0.0000 C   0  0  0  0  0  0  0  0  0  0  0  0
   -0.3112   -2.5710    0.0000 N   0  0  0  0  0  0  0  0  0  0  0  0
   -0.3112   -3.3960    0.0000 C   0  0  0  0  0  0  0  0  0  0  0  0
   -1.0256   -3.8085    0.0000 C   0  0  0  0  0  0  0  0  0  0  0  0
   -1.7401   -3.3960    0.0000 N   0  0  0  0  0  0  0  0  0  0  0  0
   -2.4546   -3.8085    0.0000 O   0  0  0  0  0  0  0  0  0  0  0  0
   -1.7401   -2.5710    0.0000 O   0  0  0  0  0  0  0  0  0  0  0  0
    0.4033   -3.8085    0.0000 N   0  0  0  0  0  0  0  0  0  0  0  0
    1.1178   -3.3960    0.0000 C   0  0  0  0  0  0  0  0  0  0  0  0
    1.8323   -3.8085    0.0000 C   0  0  0  0  0  0  0  0  0  0  0  0
    2.5467   -3.3960    0.0000 S   0  0  0  0  0  0  0  0  0  0  0  0
    3.2612   -3.8085    0.0000 C   0  0  0  0  0  0  0  0  0  0  0  0
    3.9757   -3.3960    0.0000 C   0  0  0  0  0  0  0  0  0  0  0  0
    4.0619   -2.5755    0.0000 C   0  0  0  0  0  0  0  0  0  0  0  0
    4.8689   -2.4040    0.0000 C   0  0  0  0  0  0  0  0  0  0  0  0
    5.2814   -3.1185    0.0000 C   0  0  0  0  0  0  0  0  0  0  0  0
    4.7293   -3.7315    0.0000 O   0  0  0  0  0  0  0  0  0  0  0  0
    6.1019   -3.2047    0.0000 C   0  0  0  0  0  0  0  0  0  0  0  0
    6.4374   -3.9584    0.0000 N   0  0  0  0  0  0  0  0  0  0  0  0
    7.2579   -4.0446    0.0000 C   0  0  0  0  0  0  0  0  0  0  0  0
    5.9525   -4.6258    0.0000 C   0  0  0  0  0  0  0  0  0  0  0  0
  2  1  1  0
  2  3  2  3
  3  4  1  0
  4  5  1  0
  5  6  2  0
  5  7  1  0
  3  8  1  0
  8  9  1  0
  9 10  1  0
 10 11  1  0
 11 12  1  0
 12 13  1  0
 13 14  2  0
 14 15  1  0
 15 16  2  0
 16 17  1  0
 13 17  1  0
 16 18  1  0
 18 19  1  0
 19 20  1  0
 19 21  1  0
M  CHG  2   5   1   7  -1
M  END
>  <name>  (82) 
ranitidine

>  <logBB>  (82) 
-1.23

>  <logBB_class>  (82) 
0

>  <HAC>  (82) 
21

>  <StandardizerResult>  (82) 
Transform (ID: Transform Nitro)

$$$$
MolID_272
     RDKit          2D

 17 18  0  0  0  0  0  0  0  0999 V2000
    1.1795   -0.8185    0.0000 C   0  0  0  0  0  0  0  0  0  0  0  0
    1.8469   -1.3034    0.0000 N   0  0  0  0  0  0  0  0  0  0  0  0
    1.5920   -2.0880    0.0000 C   0  0  0  0  0  0  0  0  0  0  0  0
    0.7670   -2.0880    0.0000 N   0  0  0  0  0  0  0  0  0  0  0  0
    0.5121   -1.3034    0.0000 N   0  0  0  0  0  0  0  0  0  0  0  0
   -0.2726   -1.0484    0.0000 C   0  0  0  0  0  0  0  0  0  0  0  0
   -0.9400   -1.5334    0.0000 C   0  0  0  0  0  0  0  0  0  0  0  0
   -1.6074   -1.0484    0.0000 C   0  0  0  0  0  0  0  0  0  0  0  0
   -1.3525   -0.2638    0.0000 C   0  0  0  0  0  0  0  0  0  0  0  0
   -0.5275   -0.2638    0.0000 O   0  0  0  0  0  0  0  0  0  0  0  0
   -1.8374    0.4036    0.0000 C   0  0  0  0  0  0  0  0  0  0  0  0
   -2.6579    0.3174    0.0000 O   0  0  0  0  0  0  0  0  0  0  0  0
   -2.3921   -1.3034    0.0000 O   0  0  0  0  0  0  0  0  0  0  0  0
   -0.9400   -2.3584    0.0000 O   0  0  0  0  0  0  0  0  0  0  0  0
    2.0769   -2.7554    0.0000 C   0  0  0  0  0  0  0  0  0  0  0  0
    2.8974   -2.6692    0.0000 O   0  0  0  0  0  0  0  0  0  0  0  0
    1.7414   -3.5091    0.0000 N   0  0  0  0  0  0  0  0  0  0  0  0
  1  2  2  0
  2  3  1  0
  3  4  2  0
  4  5  1  0
  1  5  1  0
  5  6  1  0
  6  7  1  0
  7  8  1  0
  8  9  1  0
  9 10  1  0
  6 10  1  0
  9 11  1  0
 11 12  1  0
  8 13  1  0
  7 14  1  0
  3 15  1  0
 15 16  2  0
 15 17  1  0
M  END
>  <name>  (83) 
ribavirin

>  <logBB>  (83) 
-0.67

>  <logBB_class>  (83) 
0

>  <HAC>  (83) 
17

$$$$
MolID_273
     RDKit          2D

 13 13  0  0  0  0  0  0  0  0999 V2000
    0.0000   -2.4750    0.0000 C   0  0  0  0  0  0  0  0  0  0  0  0
    0.7145   -2.8875    0.0000 C   0  0  0  0  0  0  0  0  0  0  0  0
    1.4289   -2.4750    0.0000 C   0  0  0  0  0  0  0  0  0  0  0  0
    2.1434   -2.8875    0.0000 O   0  0  0  0  0  0  0  0  0  0  0  0
    2.8579   -2.4750    0.0000 C   0  0  0  0  0  0  0  0  0  0  0  0
    2.8579   -1.6500    0.0000 O   0  0  0  0  0  0  0  0  0  0  0  0
    3.5724   -2.8875    0.0000 C   0  0  0  0  0  0  0  0  0  0  0  0
    4.2868   -2.4750    0.0000 C   0  0  0  0  0  0  0  0  0  0  0  0
    5.0013   -2.8875    0.0000 C   0  0  0  0  0  0  0  0  0  0  0  0
    5.0013   -3.7125    0.0000 C   0  0  0  0  0  0  0  0  0  0  0  0
    4.2868   -4.1250    0.0000 C   0  0  0  0  0  0  0  0  0  0  0  0
    3.5724   -3.7125    0.0000 C   0  0  0  0  0  0  0  0  0  0  0  0
    5.7158   -4.1250    0.0000 N   0  0  0  0  0  0  0  0  0  0  0  0
  1  2  1  0
  2  3  1  0
  3  4  1  0
  4  5  1  0
  5  6  2  0
  5  7  1  0
  7  8  2  0
  8  9  1  0
  9 10  2  0
 10 11  1  0
 11 12  2  0
  7 12  1  0
 10 13  1  0
M  END
>  <name>  (84) 
risocaine

>  <logBB>  (84) 
0.55

>  <logBB_class>  (84) 
1

>  <HAC>  (84) 
13

$$$$
MolID_274
     RDKit          2D

 30 34  0  0  0  0  0  0  0  0999 V2000
    3.3193    1.0164    0.0000 C   0  0  0  0  0  0  0  0  0  0  0  0
    3.8714    1.6295    0.0000 C   0  0  0  0  0  0  0  0  0  0  0  0
    3.6164    2.4141    0.0000 N   0  0  0  0  0  0  0  0  0  0  0  0
    4.1684    3.0272    0.0000 C   0  0  0  0  0  0  0  0  0  0  0  0
    3.9135    3.8118    0.0000 C   0  0  0  0  0  0  0  0  0  0  0  0
    4.4655    4.4249    0.0000 C   0  0  0  0  0  0  0  0  0  0  0  0
    5.2725    4.2534    0.0000 C   0  0  0  0  0  0  0  0  0  0  0  0
    5.5275    3.4687    0.0000 C   0  0  0  0  0  0  0  0  0  0  0  0
    4.9754    2.8556    0.0000 N   0  0  0  0  0  0  0  0  0  0  0  0
    4.6783    1.4579    0.0000 C   0  0  0  0  0  0  0  0  0  0  0  0
    4.9333    0.6733    0.0000 C   0  0  0  0  0  0  0  0  0  0  0  0
    5.7402    0.5018    0.0000 C   0  0  0  0  0  0  0  0  0  0  0  0
    5.9952   -0.2828    0.0000 N   0  0  0  0  0  0  0  0  0  0  0  0
    6.8021   -0.4544    0.0000 C   0  0  0  0  0  0  0  0  0  0  0  0
    7.0571   -1.2390    0.0000 C   0  0  0  0  0  0  0  0  0  0  0  0
    6.5051   -1.8521    0.0000 C   0  0  0  0  0  0  0  0  0  0  0  0
    6.7600   -2.6367    0.0000 C   0  0  0  0  0  0  0  0  0  0  0  0
    6.2751   -3.3041    0.0000 N   0  0  0  0  0  0  0  0  0  0  0  0
    6.7600   -3.9716    0.0000 O   0  0  0  0  0  0  0  0  0  0  0  0
    7.5446   -3.7166    0.0000 C   0  0  0  0  0  0  0  0  0  0  0  0
    7.5446   -2.8916    0.0000 C   0  0  0  0  0  0  0  0  0  0  0  0
    8.2591   -2.4791    0.0000 C   0  0  0  0  0  0  0  0  0  0  0  0
    8.9736   -2.8916    0.0000 C   0  0  0  0  0  0  0  0  0  0  0  0
    8.9736   -3.7166    0.0000 C   0  0  0  0  0  0  0  0  0  0  0  0
    9.6880   -4.1291    0.0000 F   0  0  0  0  0  0  0  0  0  0  0  0
    8.2591   -4.1291    0.0000 C   0  0  0  0  0  0  0  0  0  0  0  0
    5.6981   -1.6806    0.0000 C   0  0  0  0  0  0  0  0  0  0  0  0
    5.4431   -0.8959    0.0000 C   0  0  0  0  0  0  0  0  0  0  0  0
    5.2304    2.0710    0.0000 C   0  0  0  0  0  0  0  0  0  0  0  0
    6.0373    1.8995    0.0000 O   0  0  0  0  0  0  0  0  0  0  0  0
  1  2  1  0
  2  3  1  0
  3  4  2  0
  4  5  1  0
  5  6  1  0
  6  7  1  0
  7  8  1  0
  8  9  1  0
  4  9  1  0
  2 10  2  0
 10 11  1  0
 11 12  1  0
 12 13  1  0
 13 14  1  0
 14 15  1  0
 15 16  1  0
 16 17  1  0
 17 18  2  0
 18 19  1  0
 19 20  1  0
 20 21  2  0
 17 21  1  0
 21 22  1  0
 22 23  2  0
 23 24  1  0
 24 25  1  0
 24 26  2  0
 20 26  1  0
 16 27  1  0
 27 28  1  0
 13 28  1  0
 10 29  1  0
  9 29  1  0
 29 30  2  0
M  END
>  <name>  (85) 
Risperidone

>  <logBB>  (85) 
-0.02

>  <logBB_class>  (85) 
0

>  <HAC>  (85) 
30

$$$$
MolID_275
     RDKit          2D

 18 18  0  0  0  0  0  0  0  0999 V2000
   -1.4484   -2.4539    0.0000 C   0  0  0  0  0  0  0  0  0  0  0  0
   -0.7340   -2.0414    0.0000 C   0  0  0  0  0  0  0  0  0  0  0  0
   -0.0195   -2.4539    0.0000 N   0  0  0  0  0  0  0  0  0  0  0  0
   -0.0195   -3.2789    0.0000 C   0  0  0  0  0  0  0  0  0  0  0  0
    0.6950   -2.0414    0.0000 C   0  0  0  0  0  0  0  0  0  0  0  0
    0.6950   -1.2164    0.0000 O   0  0  0  0  0  0  0  0  0  0  0  0
    1.4094   -2.4539    0.0000 O   0  0  0  0  0  0  0  0  0  0  0  0
    2.1239   -2.0414    0.0000 C   0  0  0  0  0  0  0  0  0  0  0  0
    2.1239   -1.2164    0.0000 C   0  0  0  0  0  0  0  0  0  0  0  0
    2.8384   -0.8039    0.0000 C   0  0  0  0  0  0  0  0  0  0  0  0
    3.5529   -1.2164    0.0000 C   0  0  0  0  0  0  0  0  0  0  0  0
    3.5529   -2.0414    0.0000 C   0  0  0  0  0  0  0  0  0  0  0  0
    2.8384   -2.4539    0.0000 C   0  0  0  0  0  0  0  0  0  0  0  0
    4.2673   -2.4539    0.0000 C   0  0  0  0  0  0  0  0  0  0  0  0
    4.9818   -2.0414    0.0000 C   0  0  0  0  0  0  0  0  0  0  0  0
    4.2673   -3.2789    0.0000 N   0  0  0  0  0  0  0  0  0  0  0  0
    4.9818   -3.6914    0.0000 C   0  0  0  0  0  0  0  0  0  0  0  0
    3.5529   -3.6914    0.0000 C   0  0  0  0  0  0  0  0  0  0  0  0
  1  2  1  0
  2  3  1  0
  3  4  1  0
  3  5  1  0
  5  6  2  0
  5  7  1  0
  7  8  1  0
  8  9  2  0
  9 10  1  0
 10 11  2  0
 11 12  1  0
 12 13  2  0
  8 13  1  0
 12 14  1  0
 14 15  1  0
 14 16  1  0
 16 17  1  0
 16 18  1  0
M  END
>  <name>  (86) 
rivastigmine

>  <logBB>  (86) 
0.88

>  <logBB_class>  (86) 
1

>  <HAC>  (86) 
18

$$$$
MolID_276
     RDKit          2D

 22 24  0  0  0  0  0  0  0  0999 V2000
   -2.2274    0.4474    0.0000 C   0  0  0  0  0  0  0  0  0  0  0  0
   -1.5389   -0.0071    0.0000 C   0  0  0  0  0  0  0  0  0  0  0  0
   -1.9934   -0.6956    0.0000 C   0  0  0  0  0  0  0  0  0  0  0  0
   -1.0844    0.6814    0.0000 C   0  0  0  0  0  0  0  0  0  0  0  0
   -0.8504   -0.4616    0.0000 O   0  0  0  0  0  0  0  0  0  0  0  0
   -0.1125   -0.0926    0.0000 C   0  0  0  0  0  0  0  0  0  0  0  0
   -0.0632    0.7310    0.0000 O   0  0  0  0  0  0  0  0  0  0  0  0
    0.5760   -0.5471    0.0000 C   0  0  0  0  0  0  0  0  0  0  0  0
    1.3484   -0.2572    0.0000 C   0  0  0  0  0  0  0  0  0  0  0  0
    1.5320    0.5471    0.0000 C   0  0  0  0  0  0  0  0  0  0  0  0
    2.2753    0.9051    0.0000 N   0  0  0  0  0  0  0  0  0  0  0  0
    3.0186    0.5471    0.0000 C   0  0  0  0  0  0  0  0  0  0  0  0
    3.6636    1.0615    0.0000 O   0  0  0  0  0  0  0  0  0  0  0  0
    3.2022   -0.2572    0.0000 C   0  0  0  0  0  0  0  0  0  0  0  0
    2.6878   -0.9022    0.0000 C   0  0  0  0  0  0  0  0  0  0  0  0
    1.8628   -0.9022    0.0000 N   0  0  0  0  0  0  0  0  0  0  0  0
    1.4083   -1.5907    0.0000 C   0  0  0  0  0  0  0  0  0  0  0  0
    0.6130   -1.3712    0.0000 N   0  0  0  0  0  0  0  0  0  0  0  0
    3.1423   -1.5907    0.0000 C   0  0  0  0  0  0  0  0  0  0  0  0
    3.9375   -1.3712    0.0000 C   0  0  0  0  0  0  0  0  0  0  0  0
    3.9746   -0.5471    0.0000 S   0  0  0  0  0  0  0  0  0  0  0  0
    2.2753    1.7301    0.0000 C   0  0  0  0  0  0  0  0  0  0  0  0
  1  2  1  0
  2  3  1  0
  2  4  1  0
  2  5  1  0
  5  6  1  0
  6  7  2  0
  6  8  1  0
  8  9  2  0
  9 10  1  0
 10 11  1  0
 11 12  1  0
 12 13  2  0
 12 14  1  0
 14 15  2  0
 15 16  1  0
  9 16  1  0
 16 17  1  0
 17 18  2  0
  8 18  1  0
 15 19  1  0
 19 20  2  0
 20 21  1  0
 14 21  1  0
 11 22  1  0
M  END
>  <name>  (87) 
RO19-4603

>  <logBB>  (87) 
-0.25

>  <logBB_class>  (87) 
0

>  <HAC>  (87) 
22

$$$$
MolID_277
     RDKit          2D

 20 22  0  0  0  0  0  0  0  0999 V2000
   -0.0156    7.1465    0.0000 C   0  0  0  0  0  0  0  0  0  0  0  0
    0.6988    6.7340    0.0000 O   0  0  0  0  0  0  0  0  0  0  0  0
    0.6988    5.9090    0.0000 C   0  0  0  0  0  0  0  0  0  0  0  0
    1.4133    5.4965    0.0000 C   0  0  0  0  0  0  0  0  0  0  0  0
    1.4133    4.6715    0.0000 C   0  0  0  0  0  0  0  0  0  0  0  0
    0.6988    4.2590    0.0000 C   0  0  0  0  0  0  0  0  0  0  0  0
   -0.0156    4.6715    0.0000 C   0  0  0  0  0  0  0  0  0  0  0  0
   -0.0156    5.4965    0.0000 C   0  0  0  0  0  0  0  0  0  0  0  0
    0.6988    3.4340    0.0000 C   0  0  0  0  0  0  0  0  0  0  0  0
    1.3663    2.9491    0.0000 C   0  0  0  0  0  0  0  0  0  0  0  0
    1.1113    2.1645    0.0000 C   0  0  0  0  0  0  0  0  0  0  0  0
    1.5963    1.4971    0.0000 O   0  0  0  0  0  0  0  0  0  0  0  0
    0.2863    2.1645    0.0000 N   0  0  0  0  0  0  0  0  0  0  0  0
    0.0314    2.9491    0.0000 C   0  0  0  0  0  0  0  0  0  0  0  0
    2.1278    5.9090    0.0000 O   0  0  0  0  0  0  0  0  0  0  0  0
    2.8422    5.4965    0.0000 C   0  0  0  0  0  0  0  0  0  0  0  0
    3.5959    5.8321    0.0000 C   0  0  0  0  0  0  0  0  0  0  0  0
    4.1480    5.2190    0.0000 C   0  0  0  0  0  0  0  0  0  0  0  0
    3.7355    4.5045    0.0000 C   0  0  0  0  0  0  0  0  0  0  0  0
    2.9285    4.6761    0.0000 C   0  0  0  0  0  0  0  0  0  0  0  0
  1  2  1  0
  2  3  1  0
  3  4  2  0
  4  5  1  0
  5  6  2  0
  6  7  1  0
  7  8  2  0
  3  8  1  0
  6  9  1  0
  9 10  1  0
 10 11  1  0
 11 12  2  0
 11 13  1  0
 13 14  1  0
  9 14  1  0
  4 15  1  0
 15 16  1  0
 16 17  1  0
 17 18  1  0
 18 19  1  0
 19 20  1  0
 16 20  1  0
M  END
>  <name>  (88) 
rolipram

>  <logBB>  (88) 
0.61

>  <logBB_class>  (88) 
1

>  <HAC>  (88) 
20

$$$$
MolID_279
     RDKit          2D

 17 17  0  0  0  0  0  0  0  0999 V2000
   -1.4472    4.2013    0.0000 C   0  0  0  0  0  0  0  0  0  0  0  0
   -0.7328    3.7888    0.0000 C   0  0  0  0  0  0  0  0  0  0  0  0
   -1.1453    3.0743    0.0000 C   0  0  0  0  0  0  0  0  0  0  0  0
   -0.3203    4.5033    0.0000 C   0  0  0  0  0  0  0  0  0  0  0  0
   -0.0183    3.3763    0.0000 N   0  0  0  0  0  0  0  0  0  0  0  0
   -0.0183    2.5513    0.0000 C   0  0  0  0  0  0  0  0  0  0  0  0
    0.6962    2.1388    0.0000 C   0  0  0  0  0  0  0  0  0  0  0  0
    0.6962    1.3138    0.0000 C   0  0  0  0  0  0  0  0  0  0  0  0
    1.4107    0.9013    0.0000 C   0  0  0  0  0  0  0  0  0  0  0  0
    1.4107    0.0763    0.0000 C   0  0  0  0  0  0  0  0  0  0  0  0
    0.6962   -0.3362    0.0000 C   0  0  0  0  0  0  0  0  0  0  0  0
   -0.0183    0.0763    0.0000 C   0  0  0  0  0  0  0  0  0  0  0  0
   -0.0183    0.9013    0.0000 C   0  0  0  0  0  0  0  0  0  0  0  0
    0.6962   -1.1612    0.0000 O   0  0  0  0  0  0  0  0  0  0  0  0
    2.1251   -0.3362    0.0000 C   0  0  0  0  0  0  0  0  0  0  0  0
    2.1251   -1.1612    0.0000 O   0  0  0  0  0  0  0  0  0  0  0  0
    1.4107    2.5513    0.0000 O   0  0  0  0  0  0  0  0  0  0  0  0
  1  2  1  0
  2  3  1  0
  2  4  1  0
  2  5  1  0
  5  6  1  0
  6  7  1  0
  7  8  1  0
  8  9  2  0
  9 10  1  0
 10 11  2  0
 11 12  1  0
 12 13  2  0
  8 13  1  0
 11 14  1  0
 10 15  1  0
 15 16  1  0
  7 17  1  0
M  END
>  <name>  (89) 
salbutamol

>  <logBB>  (89) 
-1.14

>  <logBB_class>  (89) 
0

>  <HAC>  (89) 
17

$$$$
MolID_280
     RDKit          2D

 10 10  0  0  0  0  0  0  0  0999 V2000
    0.7145    1.2375    0.0000 C   0  0  0  0  0  0  0  0  0  0  0  0
    1.4289    0.8250    0.0000 C   0  0  0  0  0  0  0  0  0  0  0  0
    1.4289    0.0000    0.0000 C   0  0  0  0  0  0  0  0  0  0  0  0
    0.7145   -0.4125    0.0000 C   0  0  0  0  0  0  0  0  0  0  0  0
    0.0000    0.0000    0.0000 C   0  0  0  0  0  0  0  0  0  0  0  0
    0.0000    0.8250    0.0000 C   0  0  0  0  0  0  0  0  0  0  0  0
   -0.7145   -0.4125    0.0000 C   0  0  0  0  0  0  0  0  0  0  0  0
   -0.7145   -1.2375    0.0000 O   0  0  0  0  0  0  0  0  0  0  0  0
   -1.4289    0.0000    0.0000 O   0  0  0  0  0  0  0  0  0  0  0  0
    0.7145   -1.2375    0.0000 O   0  0  0  0  0  0  0  0  0  0  0  0
  1  2  2  0
  2  3  1  0
  3  4  2  0
  4  5  1  0
  5  6  2  0
  1  6  1  0
  5  7  1  0
  7  8  1  0
  7  9  2  0
  4 10  1  0
M  END
>  <name>  (90) 
salicylicacid

>  <logBB>  (90) 
-1.11

>  <logBB_class>  (90) 
0

>  <HAC>  (90) 
10

$$$$
MolID_281
     RDKit          2D

 14 14  0  0  0  0  0  0  0  0999 V2000
    0.7145   -0.4133    0.0000 C   0  0  0  0  0  0  0  0  0  0  0  0
    0.0000   -0.0008    0.0000 C   0  0  0  0  0  0  0  0  0  0  0  0
    0.0000    0.8242    0.0000 C   0  0  0  0  0  0  0  0  0  0  0  0
    0.7145    1.2367    0.0000 C   0  0  0  0  0  0  0  0  0  0  0  0
    1.4290    0.8242    0.0000 C   0  0  0  0  0  0  0  0  0  0  0  0
    1.4290   -0.0008    0.0000 C   0  0  0  0  0  0  0  0  0  0  0  0
    2.1434    1.2367    0.0000 C   0  0  0  0  0  0  0  0  0  0  0  0
    2.1434    2.0617    0.0000 O   0  0  0  0  0  0  0  0  0  0  0  0
    2.8579    0.8242    0.0000 N   0  0  0  0  0  0  0  0  0  0  0  0
    3.5724    1.2367    0.0000 C   0  0  0  0  0  0  0  0  0  0  0  0
    4.2868    0.8242    0.0000 C   0  0  0  0  0  0  0  0  0  0  0  0
    5.0013    1.2367    0.0000 O   0  0  0  0  0  0  0  0  0  0  0  0
    4.2868   -0.0008    0.0000 O   0  0  0  0  0  0  0  0  0  0  0  0
    0.7145    2.0617    0.0000 O   0  0  0  0  0  0  0  0  0  0  0  0
  1  2  2  0
  2  3  1  0
  3  4  2  0
  4  5  1  0
  5  6  2  0
  1  6  1  0
  5  7  1  0
  7  8  2  0
  7  9  1  0
  9 10  1  0
 10 11  1  0
 11 12  1  0
 11 13  2  0
  4 14  1  0
M  END
>  <name>  (91) 
salicylurate

>  <logBB>  (91) 
-0.44

>  <logBB_class>  (91) 
0

>  <HAC>  (91) 
14

$$$$
MolID_282
     RDKit          2D

 49 53  0  0  1  0  0  0  0  0999 V2000
    8.7009   -4.0552    0.0000 O   0  0  0  0  0  0  0  0  0  0  0  0
    8.7009   -3.2302    0.0000 C   0  0  0  0  0  0  0  0  0  0  0  0
    9.4154   -2.8177    0.0000 N   0  0  0  0  0  0  0  0  0  0  0  0
    7.9865   -2.8177    0.0000 C   0  0  0  0  0  0  0  0  0  0  0  0
    7.9865   -1.9927    0.0000 C   0  0  0  0  0  0  0  0  0  0  0  0
    7.2720   -1.5802    0.0000 N   0  0  0  0  0  0  0  0  0  0  0  0
    6.5575   -1.9927    0.0000 C   0  0  0  0  0  0  0  0  0  0  0  0
    6.5575   -2.8177    0.0000 O   0  0  0  0  0  0  0  0  0  0  0  0
    5.8431   -1.5802    0.0000 C   0  0  0  0  0  0  0  0  0  0  0  0
    5.1286   -1.9927    0.0000 N   0  0  0  0  0  0  0  0  0  0  0  0
    4.4141   -1.5802    0.0000 C   0  0  0  0  0  0  0  0  0  0  0  0
    4.4141   -0.7552    0.0000 C   0  0  0  0  0  0  0  0  0  0  0  0
    5.1286   -0.3427    0.0000 C   0  0  0  0  0  0  0  0  0  0  0  0
    5.8431   -0.7552    0.0000 C   0  0  0  0  0  0  0  0  0  0  0  0
    3.6997   -0.3427    0.0000 C   0  0  0  0  0  0  0  0  0  0  0  0
    2.9852   -0.7552    0.0000 C   0  0  0  0  0  0  0  0  0  0  0  0
    2.9852   -1.5802    0.0000 C   0  0  0  0  0  0  0  0  0  0  0  0
    3.6997   -1.9927    0.0000 C   0  0  0  0  0  0  0  0  0  0  0  0
    8.7009   -1.5802    0.0000 C   0  0  0  0  0  0  0  0  0  0  0  0
    8.7009   -0.7552    0.0000 O   0  0  0  0  0  0  0  0  0  0  0  0
    9.4154   -1.9927    0.0000 N   0  0  0  0  0  0  0  0  0  0  0  0
   10.1299   -1.5802    0.0000 C   0  0  0  0  0  0  0  0  0  0  0  0
   10.1299   -0.7552    0.0000 C   0  0  0  0  0  0  0  0  0  0  0  0
   10.8444   -0.3427    0.0000 C   0  0  0  0  0  0  0  0  0  0  0  0
   10.8444    0.4823    0.0000 C   0  0  0  0  0  0  0  0  0  0  0  0
   11.5588    0.8948    0.0000 C   0  0  0  0  0  0  0  0  0  0  0  0
   12.2733    0.4823    0.0000 C   0  0  0  0  0  0  0  0  0  0  0  0
   12.2733   -0.3427    0.0000 C   0  0  0  0  0  0  0  0  0  0  0  0
   11.5588   -0.7552    0.0000 C   0  0  0  0  0  0  0  0  0  0  0  0
   10.8444   -1.9927    0.0000 C   0  0  0  0  0  0  0  0  0  0  0  0
   10.8444   -2.8177    0.0000 O   0  0  0  0  0  0  0  0  0  0  0  0
   11.5588   -1.5802    0.0000 C   0  0  0  0  0  0  0  0  0  0  0  0
   12.2733   -1.9927    0.0000 N   0  0  0  0  0  0  0  0  0  0  0  0
   12.9878   -1.5802    0.0000 C   0  0  0  0  0  0  0  0  0  0  0  0
   12.9878   -0.7552    0.0000 C   0  0  0  0  0  0  0  0  0  0  0  0
   12.6522   -0.0015    0.0000 O   0  0  0  0  0  0  0  0  0  0  0  0
   13.7022   -0.3427    0.0000 N   0  0  0  0  0  0  0  0  0  0  0  0
   13.7022    0.4823    0.0000 C   0  0  0  0  0  0  0  0  0  0  0  0
   13.7022    1.3073    0.0000 C   0  0  0  0  0  0  0  0  0  0  0  0
   14.5272    0.4823    0.0000 C   0  0  0  0  0  0  0  0  0  0  0  0
   12.8772    0.4823    0.0000 C   0  0  0  0  0  0  0  0  0  0  0  0
   13.7022   -1.9927    0.0000 C   0  0  0  0  0  0  0  0  0  0  0  0
   13.7022   -2.8177    0.0000 C   0  0  0  0  0  0  0  0  0  0  0  0
   14.4167   -3.2302    0.0000 C   0  0  0  0  0  0  0  0  0  0  0  0
   14.4167   -4.0552    0.0000 C   0  0  0  0  0  0  0  0  0  0  0  0
   13.7022   -4.4677    0.0000 C   0  0  0  0  0  0  0  0  0  0  0  0
   12.9878   -4.0552    0.0000 C   0  0  0  0  0  0  0  0  0  0  0  0
   12.9878   -3.2302    0.0000 C   0  0  0  0  0  0  0  0  0  0  0  0
   12.2733   -2.8177    0.0000 C   0  0  0  0  0  0  0  0  0  0  0  0
  1  2  2  0
  2  3  1  0
  2  4  1  0
  5  4  1  6
  5  6  1  0
  6  7  1  0
  7  8  2  0
  7  9  1  0
  9 10  2  0
 10 11  1  0
 11 12  2  0
 12 13  1  0
 13 14  2  0
  9 14  1  0
 12 15  1  0
 15 16  2  0
 16 17  1  0
 17 18  2  0
 11 18  1  0
  5 19  1  0
 19 20  2  0
 19 21  1  0
 22 21  1  0
 22 23  1  1
 23 24  1  0
 24 25  2  0
 25 26  1  0
 26 27  2  0
 27 28  1  0
 28 29  2  0
 24 29  1  0
 22 30  1  0
 30 31  1  1
 30 32  1  0
 32 33  1  0
 34 33  1  0
 34 35  1  6
 35 36  2  0
 35 37  1  0
 37 38  1  0
 38 39  1  0
 38 40  1  0
 38 41  1  0
 34 42  1  0
 43 42  1  6
 43 44  1  0
 44 45  1  0
 45 46  1  0
 46 47  1  0
 48 47  1  6
 43 48  1  0
 48 49  1  0
 33 49  1  0
M  END
>  <name>  (92) 
saquinavir

>  <logBB>  (92) 
-0.95

>  <logBB_class>  (92) 
0

>  <HAC>  (92) 
49

$$$$
MolID_283
     RDKit          2D

 22 25  0  0  0  0  0  0  0  0999 V2000
   -1.2759   -1.9971    0.0000 C   0  0  0  0  0  0  0  0  0  0  0  0
   -0.4509   -1.9971    0.0000 N   0  0  0  0  0  0  0  0  0  0  0  0
   -0.2192   -2.9240    0.0000 C   0  0  0  0  0  0  0  0  0  0  0  0
    0.5851   -2.7404    0.0000 C   0  0  0  0  0  0  0  0  0  0  0  0
    0.9431   -1.9971    0.0000 C   0  0  0  0  0  0  0  0  0  0  0  0
    0.5851   -1.2538    0.0000 C   0  0  0  0  0  0  0  0  0  0  0  0
   -0.2192   -1.0702    0.0000 C   0  0  0  0  0  0  0  0  0  0  0  0
   -0.8642   -1.5846    0.0000 C   0  0  0  0  0  0  0  0  0  0  0  0
   -0.8642   -2.4096    0.0000 C   0  0  0  0  0  0  0  0  0  0  0  0
   -1.5787   -1.9971    0.0000 O   0  0  0  0  0  0  0  0  0  0  0  0
    1.7681   -1.9971    0.0000 O   0  0  0  0  0  0  0  0  0  0  0  0
    2.1806   -2.7116    0.0000 C   0  0  0  0  0  0  0  0  0  0  0  0
    1.7681   -3.4260    0.0000 O   0  0  0  0  0  0  0  0  0  0  0  0
    3.0056   -2.7116    0.0000 C   0  0  0  0  0  0  0  0  0  0  0  0
    3.4181   -1.9971    0.0000 C   0  0  0  0  0  0  0  0  0  0  0  0
    4.2431   -1.9971    0.0000 O   0  0  0  0  0  0  0  0  0  0  0  0
    3.4181   -3.4260    0.0000 C   0  0  0  0  0  0  0  0  0  0  0  0
    4.2431   -3.4260    0.0000 C   0  0  0  0  0  0  0  0  0  0  0  0
    4.6556   -4.1405    0.0000 C   0  0  0  0  0  0  0  0  0  0  0  0
    4.2431   -4.8550    0.0000 C   0  0  0  0  0  0  0  0  0  0  0  0
    3.4181   -4.8550    0.0000 C   0  0  0  0  0  0  0  0  0  0  0  0
    3.0056   -4.1405    0.0000 C   0  0  0  0  0  0  0  0  0  0  0  0
  1  2  1  0
  2  3  1  0
  3  4  1  0
  4  5  1  0
  5  6  1  0
  6  7  1  0
  2  7  1  0
  7  8  1  0
  8  9  1  0
  3  9  1  0
  9 10  1  0
  8 10  1  0
  5 11  1  0
 11 12  1  0
 12 13  2  0
 12 14  1  0
 14 15  1  0
 15 16  1  0
 14 17  1  0
 17 18  2  0
 18 19  1  0
 19 20  2  0
 20 21  1  0
 21 22  2  0
 17 22  1  0
M  END
>  <name>  (93) 
scopolamine

>  <logBB>  (93) 
0.23

>  <logBB_class>  (93) 
1

>  <HAC>  (93) 
22

$$$$
MolID_284
     RDKit          2D

  6  5  0  0  0  0  0  0  0  0999 V2000
    2.4262   -1.5423    0.0000 C   0  0  0  0  0  0  0  0  0  0  0  0
    2.0137   -0.8278    0.0000 C   0  0  0  0  0  0  0  0  0  0  0  0
    1.1887   -0.8278    0.0000 C   0  0  0  0  0  0  0  0  0  0  0  0
    0.7762   -1.5423    0.0000 C   0  0  0  0  0  0  0  0  0  0  0  0
    0.7762   -0.1133    0.0000 C   0  0  0  0  0  0  0  0  0  0  0  0
   -0.0488   -0.1133    0.0000 O   0  0  0  0  0  0  0  0  0  0  0  0
  1  2  1  0
  2  3  1  0
  3  4  1  0
  3  5  1  0
  5  6  1  0
M  END
>  <name>  (94) 
sec-butylcarbinol

>  <logBB>  (94) 
0.04

>  <logBB_class>  (94) 
1

>  <HAC>  (94) 
6

$$$$
MolID_285
     RDKit          2D

 17 17  0  0  0  0  0  0  0  0999 V2000
   -0.7693    3.5360    0.0000 C   0  0  0  0  0  0  0  0  0  0  0  0
   -1.0515    2.7608    0.0000 C   0  0  0  0  0  0  0  0  0  0  0  0
   -0.5212    2.1288    0.0000 C   0  0  0  0  0  0  0  0  0  0  0  0
    0.2913    2.2720    0.0000 C   0  0  0  0  0  0  0  0  0  0  0  0
    0.5735    3.0473    0.0000 C   0  0  0  0  0  0  0  0  0  0  0  0
    0.8216    1.6401    0.0000 C   0  0  0  0  0  0  0  0  0  0  0  0
    1.5361    1.2276    0.0000 C   0  0  0  0  0  0  0  0  0  0  0  0
    2.2505    1.6401    0.0000 O   0  0  0  0  0  0  0  0  0  0  0  0
    1.5361    0.4026    0.0000 N   0  0  0  0  0  0  0  0  0  0  0  0
    0.8216   -0.0099    0.0000 C   0  0  0  0  0  0  0  0  0  0  0  0
    0.8216   -0.8349    0.0000 O   0  0  0  0  0  0  0  0  0  0  0  0
    0.1071    0.4026    0.0000 N   0  0  0  0  0  0  0  0  0  0  0  0
    0.1071    1.2276    0.0000 C   0  0  0  0  0  0  0  0  0  0  0  0
   -0.6074    1.6401    0.0000 O   0  0  0  0  0  0  0  0  0  0  0  0
    1.3519    2.2720    0.0000 C   0  0  0  0  0  0  0  0  0  0  0  0
    1.0697    3.0473    0.0000 C   0  0  0  0  0  0  0  0  0  0  0  0
    1.6000    3.6793    0.0000 C   0  0  0  0  0  0  0  0  0  0  0  0
  1  2  1  0
  2  3  1  0
  3  4  1  0
  4  5  1  0
  4  6  1  0
  6  7  1  0
  7  8  2  0
  7  9  1  0
  9 10  1  0
 10 11  2  0
 10 12  1  0
 12 13  1  0
  6 13  1  0
 13 14  2  0
  6 15  1  0
 15 16  1  0
 16 17  2  0
M  END
>  <name>  (95) 
secobarbital

>  <logBB>  (95) 
0.2

>  <logBB_class>  (95) 
1

>  <HAC>  (95) 
17

$$$$
MolID_286
     RDKit          2D

 20 22  0  0  0  0  0  0  0  0999 V2000
    2.1893   -2.8729    0.0000 C   0  0  0  0  0  0  0  0  0  0  0  0
    1.4748   -2.4604    0.0000 N   0  0  0  0  0  0  0  0  0  0  0  0
    1.4748   -1.6354    0.0000 C   0  0  0  0  0  0  0  0  0  0  0  0
    0.7603   -1.2229    0.0000 C   0  0  0  0  0  0  0  0  0  0  0  0
    0.7603   -0.3979    0.0000 C   0  0  0  0  0  0  0  0  0  0  0  0
    1.4748    0.0146    0.0000 C   0  0  0  0  0  0  0  0  0  0  0  0
    2.1893   -0.3979    0.0000 C   0  0  0  0  0  0  0  0  0  0  0  0
    2.9037    0.0146    0.0000 C   0  0  0  0  0  0  0  0  0  0  0  0
    3.6182   -0.3979    0.0000 C   0  0  0  0  0  0  0  0  0  0  0  0
    3.6182   -1.2229    0.0000 C   0  0  0  0  0  0  0  0  0  0  0  0
    2.9037   -1.6354    0.0000 C   0  0  0  0  0  0  0  0  0  0  0  0
    2.1893   -1.2229    0.0000 C   0  0  0  0  0  0  0  0  0  0  0  0
    1.4748    0.8396    0.0000 C   0  0  0  0  0  0  0  0  0  0  0  0
    0.7603    1.2521    0.0000 C   0  0  0  0  0  0  0  0  0  0  0  0
    0.7603    2.0771    0.0000 C   0  0  0  0  0  0  0  0  0  0  0  0
    1.4748    2.4896    0.0000 C   0  0  0  0  0  0  0  0  0  0  0  0
    2.1893    2.0771    0.0000 C   0  0  0  0  0  0  0  0  0  0  0  0
    2.1893    1.2521    0.0000 C   0  0  0  0  0  0  0  0  0  0  0  0
    1.4748    3.3146    0.0000 Cl  0  0  0  0  0  0  0  0  0  0  0  0
    0.0458    2.4896    0.0000 Cl  0  0  0  0  0  0  0  0  0  0  0  0
  1  2  1  0
  2  3  1  0
  3  4  1  0
  4  5  1  0
  5  6  1  0
  6  7  1  0
  7  8  2  0
  8  9  1  0
  9 10  2  0
 10 11  1  0
 11 12  2  0
  3 12  1  0
  7 12  1  0
  6 13  1  0
 13 14  2  0
 14 15  1  0
 15 16  2  0
 16 17  1  0
 17 18  2  0
 13 18  1  0
 16 19  1  0
 15 20  1  0
M  END
>  <name>  (96) 
sertraline

>  <logBB>  (96) 
1.6

>  <logBB_class>  (96) 
1

>  <HAC>  (96) 
20

$$$$
MolID_287
     RDKit          2D

 12 11  0  0  0  0  0  0  0  0999 V2000
    1.2346    0.1232    0.0000 C   0  0  0  0  0  0  0  0  0  0  0  0
    1.2346   -0.7018    0.0000 O   0  0  0  0  0  0  0  0  0  0  0  0
    1.9491   -1.1143    0.0000 C   0  0  0  0  0  0  0  0  0  0  0  0
    1.9491   -1.9393    0.0000 C   0  0  0  0  0  0  0  0  0  0  0  0
    1.9491   -2.7643    0.0000 F   0  0  0  0  0  0  0  0  0  0  0  0
    2.7741   -1.9393    0.0000 F   0  0  0  0  0  0  0  0  0  0  0  0
    1.1241   -1.9393    0.0000 F   0  0  0  0  0  0  0  0  0  0  0  0
    2.6635   -0.7018    0.0000 C   0  0  0  0  0  0  0  0  0  0  0  0
    3.0760   -1.4163    0.0000 F   0  0  0  0  0  0  0  0  0  0  0  0
    2.2510    0.0127    0.0000 F   0  0  0  0  0  0  0  0  0  0  0  0
    3.3780   -0.2893    0.0000 F   0  0  0  0  0  0  0  0  0  0  0  0
    0.5201    0.5357    0.0000 F   0  0  0  0  0  0  0  0  0  0  0  0
  1  2  1  0
  2  3  1  0
  3  4  1  0
  4  5  1  0
  4  6  1  0
  4  7  1  0
  3  8  1  0
  8  9  1  0
  8 10  1  0
  8 11  1  0
  1 12  1  0
M  END
>  <name>  (97) 
sevoflurane

>  <logBB>  (97) 
0.3

>  <logBB_class>  (97) 
1

>  <HAC>  (97) 
12

$$$$
MolID_289
     RDKit          2D

  5  4  0  0  0  0  0  0  0  0999 V2000
    0.8250    1.4289    0.0000 C   0  0  0  0  0  0  0  0  0  0  0  0
    1.2375    0.7144    0.0000 S   0  0  0  0  0  0  0  0  0  0  0  0
    0.8250    0.0000    0.0000 C   0  0  0  0  0  0  0  0  0  0  0  0
    1.2375   -0.7145    0.0000 N   0  0  0  0  0  0  0  0  0  0  0  0
    0.0000    0.0000    0.0000 N   0  0  0  0  0  0  0  0  0  0  0  0
  1  2  1  0
  2  3  1  0
  3  4  1  0
  3  5  2  0
M  END
>  <name>  (98) 
S-methyl-isothiourea

>  <logBB>  (98) 
-0.6

>  <logBB_class>  (98) 
0

>  <HAC>  (98) 
5

$$$$
MolID_290
     RDKit          2D

 18 18  0  0  0  0  0  0  0  0999 V2000
    0.0494   -2.4786    0.0000 C   0  0  0  0  0  0  0  0  0  0  0  0
    0.7638   -2.8911    0.0000 C   0  0  0  0  0  0  0  0  0  0  0  0
    0.7638   -3.7161    0.0000 C   0  0  0  0  0  0  0  0  0  0  0  0
    1.4783   -2.4786    0.0000 N   0  0  0  0  0  0  0  0  0  0  0  0
    2.1928   -2.8911    0.0000 C   0  0  0  0  0  0  0  0  0  0  0  0
    2.9073   -2.4786    0.0000 C   0  0  0  0  0  0  0  0  0  0  0  0
    3.6217   -2.8911    0.0000 C   0  0  0  0  0  0  0  0  0  0  0  0
    4.3362   -2.4786    0.0000 C   0  0  0  0  0  0  0  0  0  0  0  0
    5.0507   -2.8911    0.0000 C   0  0  0  0  0  0  0  0  0  0  0  0
    5.0507   -3.7161    0.0000 C   0  0  0  0  0  0  0  0  0  0  0  0
    4.3362   -4.1286    0.0000 C   0  0  0  0  0  0  0  0  0  0  0  0
    3.6217   -3.7161    0.0000 C   0  0  0  0  0  0  0  0  0  0  0  0
    5.7651   -4.1286    0.0000 N   0  0  0  0  0  0  0  0  0  0  0  0
    6.4796   -3.7161    0.0000 S   0  0  0  0  0  0  0  0  0  0  0  0
    7.1941   -3.3036    0.0000 O   0  0  0  0  0  0  0  0  0  0  0  0
    6.8921   -4.4306    0.0000 O   0  0  0  0  0  0  0  0  0  0  0  0
    6.0671   -3.0017    0.0000 C   0  0  0  0  0  0  0  0  0  0  0  0
    2.9073   -1.6536    0.0000 O   0  0  0  0  0  0  0  0  0  0  0  0
  1  2  1  0
  2  3  1  0
  2  4  1  0
  4  5  1  0
  5  6  1  0
  6  7  1  0
  7  8  2  0
  8  9  1  0
  9 10  2  0
 10 11  1  0
 11 12  2  0
  7 12  1  0
 10 13  1  0
 13 14  1  0
 14 15  2  0
 14 16  2  0
 14 17  1  0
  6 18  1  0
M  END
>  <name>  (99) 
sotalol

>  <logBB>  (99) 
-0.28

>  <logBB_class>  (99) 
0

>  <HAC>  (99) 
18

$$$$
MolID_291
     RDKit          2D

 29 32  0  0  0  0  0  0  0  0999 V2000
    1.9098    1.1508    0.0000 C   0  0  0  0  0  0  0  0  0  0  0  0
    2.7348    1.1508    0.0000 C   0  0  0  0  0  0  0  0  0  0  0  0
    3.1473    0.4364    0.0000 N   0  0  0  0  0  0  0  0  0  0  0  0
    2.7348   -0.2781    0.0000 C   0  0  0  0  0  0  0  0  0  0  0  0
    1.9098   -0.2781    0.0000 C   0  0  0  0  0  0  0  0  0  0  0  0
    1.4973    0.4364    0.0000 C   0  0  0  0  0  0  0  0  0  0  0  0
    1.0124   -0.2311    0.0000 C   0  0  0  0  0  0  0  0  0  0  0  0
    1.2673   -1.0157    0.0000 O   0  0  0  0  0  0  0  0  0  0  0  0
    0.2278    0.0239    0.0000 N   0  0  0  0  0  0  0  0  0  0  0  0
    0.2278    0.8489    0.0000 C   0  0  0  0  0  0  0  0  0  0  0  0
    1.0124    1.1038    0.0000 N   0  0  0  0  0  0  0  0  0  0  0  0
    1.2673    1.8884    0.0000 C   0  0  0  0  0  0  0  0  0  0  0  0
    0.7153    2.5015    0.0000 C   0  0  0  0  0  0  0  0  0  0  0  0
    0.9703    3.2862    0.0000 C   0  0  0  0  0  0  0  0  0  0  0  0
    1.7772    3.4577    0.0000 C   0  0  0  0  0  0  0  0  0  0  0  0
    2.3293    2.8446    0.0000 C   0  0  0  0  0  0  0  0  0  0  0  0
    2.0743    2.0600    0.0000 C   0  0  0  0  0  0  0  0  0  0  0  0
    3.9723    0.4364    0.0000 C   0  0  0  0  0  0  0  0  0  0  0  0
    4.3848    1.1508    0.0000 C   0  0  0  0  0  0  0  0  0  0  0  0
    5.2098    1.1508    0.0000 C   0  0  0  0  0  0  0  0  0  0  0  0
    5.6223    1.8653    0.0000 C   0  0  0  0  0  0  0  0  0  0  0  0
    5.2098    2.5798    0.0000 O   0  0  0  0  0  0  0  0  0  0  0  0
    6.4473    1.8653    0.0000 C   0  0  0  0  0  0  0  0  0  0  0  0
    6.8598    2.5798    0.0000 C   0  0  0  0  0  0  0  0  0  0  0  0
    7.6848    2.5798    0.0000 C   0  0  0  0  0  0  0  0  0  0  0  0
    8.0973    1.8653    0.0000 C   0  0  0  0  0  0  0  0  0  0  0  0
    7.6848    1.1508    0.0000 C   0  0  0  0  0  0  0  0  0  0  0  0
    6.8598    1.1508    0.0000 C   0  0  0  0  0  0  0  0  0  0  0  0
    8.9223    1.8653    0.0000 F   0  0  0  0  0  0  0  0  0  0  0  0
  1  2  1  0
  2  3  1  0
  3  4  1  0
  4  5  1  0
  5  6  1  0
  1  6  1  0
  6  7  1  0
  7  8  2  0
  7  9  1  0
  9 10  1  0
 10 11  1  0
  6 11  1  0
 11 12  1  0
 12 13  2  0
 13 14  1  0
 14 15  2  0
 15 16  1  0
 16 17  2  0
 12 17  1  0
  3 18  1  0
 18 19  1  0
 19 20  1  0
 20 21  1  0
 21 22  2  0
 21 23  1  0
 23 24  2  0
 24 25  1  0
 25 26  2  0
 26 27  1  0
 27 28  2  0
 23 28  1  0
 26 29  1  0
M  END
>  <name>  (100) 
spiperone

>  <logBB>  (100) 
0.26

>  <logBB_class>  (100) 
1

>  <HAC>  (100) 
29

$$$$
MolID_292
     RDKit          2D

 14 15  0  0  0  0  0  0  0  0999 V2000
    2.0359   -1.3002    0.0000 C   0  0  0  0  0  0  0  0  0  0  0  0
    2.7033   -1.7851    0.0000 C   0  0  0  0  0  0  0  0  0  0  0  0
    2.4484   -2.5698    0.0000 N   0  0  0  0  0  0  0  0  0  0  0  0
    1.6234   -2.5698    0.0000 C   0  0  0  0  0  0  0  0  0  0  0  0
    1.3685   -1.7851    0.0000 N   0  0  0  0  0  0  0  0  0  0  0  0
    1.1385   -3.2372    0.0000 N   0  0  0  0  0  0  0  0  0  0  0  0
    0.3180   -3.1510    0.0000 C   0  0  0  0  0  0  0  0  0  0  0  0
   -0.1669   -3.8184    0.0000 C   0  0  0  0  0  0  0  0  0  0  0  0
   -0.9874   -3.7322    0.0000 C   0  0  0  0  0  0  0  0  0  0  0  0
   -1.3230   -2.9785    0.0000 C   0  0  0  0  0  0  0  0  0  0  0  0
   -0.8380   -2.3110    0.0000 C   0  0  0  0  0  0  0  0  0  0  0  0
   -0.0176   -2.3973    0.0000 C   0  0  0  0  0  0  0  0  0  0  0  0
   -2.1434   -2.8923    0.0000 Cl  0  0  0  0  0  0  0  0  0  0  0  0
    0.1686   -4.5721    0.0000 Cl  0  0  0  0  0  0  0  0  0  0  0  0
  1  2  1  0
  2  3  1  0
  3  4  1  0
  4  5  2  0
  1  5  1  0
  4  6  1  0
  6  7  1  0
  7  8  2  0
  8  9  1  0
  9 10  2  0
 10 11  1  0
 11 12  2  0
  7 12  1  0
 10 13  1  0
  8 14  1  0
M  END
>  <name>  (101) 
ST363

>  <logBB>  (101) 
0.16

>  <logBB_class>  (101) 
1

>  <HAC>  (101) 
14

$$$$
MolID_293
     RDKit          2D

 16 17  0  0  0  0  0  0  0  0999 V2000
   -0.0367    4.9051    0.0000 C   0  0  0  0  0  0  0  0  0  0  0  0
   -0.7511    4.4926    0.0000 C   0  0  0  0  0  0  0  0  0  0  0  0
   -0.7511    3.6676    0.0000 C   0  0  0  0  0  0  0  0  0  0  0  0
   -1.4656    3.2551    0.0000 N   0  0  0  0  0  0  0  0  0  0  0  0
   -2.1801    3.6676    0.0000 C   0  0  0  0  0  0  0  0  0  0  0  0
   -2.8946    3.2551    0.0000 O   0  0  0  0  0  0  0  0  0  0  0  0
   -2.1801    4.4926    0.0000 N   0  0  0  0  0  0  0  0  0  0  0  0
   -1.4656    4.9051    0.0000 C   0  0  0  0  0  0  0  0  0  0  0  0
   -1.4656    5.7301    0.0000 O   0  0  0  0  0  0  0  0  0  0  0  0
   -1.4656    2.4301    0.0000 C   0  0  0  0  0  0  0  0  0  0  0  0
   -0.7982    1.9452    0.0000 C   0  0  0  0  0  0  0  0  0  0  0  0
   -1.0531    1.1605    0.0000 C   0  0  0  0  0  0  0  0  0  0  0  0
   -1.8781    1.1605    0.0000 C   0  0  0  0  0  0  0  0  0  0  0  0
   -2.1330    1.9452    0.0000 O   0  0  0  0  0  0  0  0  0  0  0  0
   -2.3630    0.4931    0.0000 C   0  0  0  0  0  0  0  0  0  0  0  0
   -2.0275   -0.2606    0.0000 O   0  0  0  0  0  0  0  0  0  0  0  0
  1  2  1  0
  2  3  2  0
  3  4  1  0
  4  5  1  0
  5  6  2  0
  5  7  1  0
  7  8  1  0
  2  8  1  0
  8  9  2  0
  4 10  1  0
 10 11  1  0
 11 12  2  0
 12 13  1  0
 13 14  1  0
 10 14  1  0
 13 15  1  0
 15 16  1  0
M  END
>  <name>  (102) 
stavudine

>  <logBB>  (102) 
-0.48

>  <logBB_class>  (102) 
0

>  <HAC>  (102) 
16

$$$$
MolID_294
     RDKit          2D

 27 30  0  0  0  0  0  0  0  0999 V2000
    4.4181   -2.4583    0.0000 C   0  0  0  0  0  0  0  0  0  0  0  0
    3.7037   -2.8708    0.0000 N   0  0  0  0  0  0  0  0  0  0  0  0
    3.7037   -3.6958    0.0000 C   0  0  0  0  0  0  0  0  0  0  0  0
    2.9892   -4.1083    0.0000 C   0  0  0  0  0  0  0  0  0  0  0  0
    2.2747   -3.6958    0.0000 C   0  0  0  0  0  0  0  0  0  0  0  0
    2.2747   -2.8708    0.0000 C   0  0  0  0  0  0  0  0  0  0  0  0
    2.9892   -2.4583    0.0000 C   0  0  0  0  0  0  0  0  0  0  0  0
    2.9892   -1.6333    0.0000 C   0  0  0  0  0  0  0  0  0  0  0  0
    2.2747   -1.2208    0.0000 C   0  0  0  0  0  0  0  0  0  0  0  0
    2.2747   -0.3958    0.0000 N   0  0  0  0  0  0  0  0  0  0  0  0
    2.9892    0.0167    0.0000 C   0  0  0  0  0  0  0  0  0  0  0  0
    3.7037   -0.3958    0.0000 C   0  0  0  0  0  0  0  0  0  0  0  0
    4.4181    0.0167    0.0000 C   0  0  0  0  0  0  0  0  0  0  0  0
    4.4181    0.8417    0.0000 C   0  0  0  0  0  0  0  0  0  0  0  0
    3.7037    1.2542    0.0000 C   0  0  0  0  0  0  0  0  0  0  0  0
    2.9892    0.8417    0.0000 C   0  0  0  0  0  0  0  0  0  0  0  0
    2.2747    1.2542    0.0000 S   0  0  0  0  0  0  0  0  0  0  0  0
    1.5603    0.8417    0.0000 C   0  0  0  0  0  0  0  0  0  0  0  0
    1.5603    0.0167    0.0000 C   0  0  0  0  0  0  0  0  0  0  0  0
    0.8458   -0.3958    0.0000 C   0  0  0  0  0  0  0  0  0  0  0  0
    0.1313    0.0167    0.0000 C   0  0  0  0  0  0  0  0  0  0  0  0
    0.1313    0.8417    0.0000 C   0  0  0  0  0  0  0  0  0  0  0  0
    0.8458    1.2542    0.0000 C   0  0  0  0  0  0  0  0  0  0  0  0
   -0.5832   -0.3958    0.0000 S   0  0  0  0  0  0  0  0  0  0  0  0
   -1.2976   -0.8083    0.0000 O   0  0  0  0  0  0  0  0  0  0  0  0
   -0.9957    0.3186    0.0000 O   0  0  0  0  0  0  0  0  0  0  0  0
   -0.1707   -1.1103    0.0000 C   0  0  0  0  0  0  0  0  0  0  0  0
  1  2  1  0
  2  3  1  0
  3  4  1  0
  4  5  1  0
  5  6  1  0
  6  7  1  0
  2  7  1  0
  7  8  1  0
  8  9  1  0
  9 10  1  0
 10 11  1  0
 11 12  2  0
 12 13  1  0
 13 14  2  0
 14 15  1  0
 15 16  2  0
 11 16  1  0
 16 17  1  0
 17 18  1  0
 18 19  2  0
 10 19  1  0
 19 20  1  0
 20 21  2  0
 21 22  1  0
 22 23  2  0
 18 23  1  0
 21 24  1  0
 24 25  2  0
 24 26  2  0
 24 27  1  0
M  END
>  <name>  (103) 
sulforidazine

>  <logBB>  (103) 
0.18

>  <logBB_class>  (103) 
1

>  <HAC>  (103) 
27

$$$$
MolID_295
     RDKit          2D

 10  9  0  0  0  0  0  0  0  0999 V2000
    0.8250    0.0000    0.0000 C   0  0  0  0  0  0  0  0  0  0  0  0
    1.2375    0.7145    0.0000 C   0  0  0  0  0  0  0  0  0  0  0  0
    1.6500    1.4290    0.0000 F   0  0  0  0  0  0  0  0  0  0  0  0
    0.5230    1.1270    0.0000 F   0  0  0  0  0  0  0  0  0  0  0  0
    1.9520    0.3020    0.0000 F   0  0  0  0  0  0  0  0  0  0  0  0
    1.2375   -0.7144    0.0000 O   0  0  0  0  0  0  0  0  0  0  0  0
    0.8250   -1.4289    0.0000 C   0  0  0  0  0  0  0  0  0  0  0  0
    1.2375   -2.1434    0.0000 F   0  0  0  0  0  0  0  0  0  0  0  0
    0.0000   -1.4289    0.0000 F   0  0  0  0  0  0  0  0  0  0  0  0
    0.0000    0.0000    0.0000 F   0  0  0  0  0  0  0  0  0  0  0  0
  1  2  1  0
  2  3  1  0
  2  4  1  0
  2  5  1  0
  1  6  1  0
  6  7  1  0
  7  8  1  0
  7  9  1  0
  1 10  1  0
M  END
>  <name>  (104) 
suprane

>  <logBB>  (104) 
0.11

>  <logBB_class>  (104) 
1

>  <HAC>  (104) 
10

$$$$
MolID_296
     RDKit          2D

 19 21  0  0  0  0  0  0  0  0999 V2000
   -0.5660    0.9126    0.0000 C   0  0  0  0  0  0  0  0  0  0  0  0
    0.2409    1.0841    0.0000 C   0  0  0  0  0  0  0  0  0  0  0  0
    0.7930    0.4710    0.0000 C   0  0  0  0  0  0  0  0  0  0  0  0
    0.5380   -0.3136    0.0000 C   0  0  0  0  0  0  0  0  0  0  0  0
   -0.2689   -0.4852    0.0000 C   0  0  0  0  0  0  0  0  0  0  0  0
   -0.8210    0.1279    0.0000 C   0  0  0  0  0  0  0  0  0  0  0  0
    1.0901   -0.9267    0.0000 C   0  0  0  0  0  0  0  0  0  0  0  0
    1.7575   -1.4116    0.0000 C   0  0  0  0  0  0  0  0  0  0  0  0
    2.5421   -1.1567    0.0000 O   0  0  0  0  0  0  0  0  0  0  0  0
    1.5026   -2.1963    0.0000 N   0  0  0  0  0  0  0  0  0  0  0  0
    0.6776   -2.1963    0.0000 C   0  0  0  0  0  0  0  0  0  0  0  0
    0.1926   -2.8637    0.0000 O   0  0  0  0  0  0  0  0  0  0  0  0
    0.4226   -1.4116    0.0000 N   0  0  0  0  0  0  0  0  0  0  0  0
    1.6421   -0.3136    0.0000 C   0  0  0  0  0  0  0  0  0  0  0  0
    1.3872    0.4710    0.0000 C   0  0  0  0  0  0  0  0  0  0  0  0
    1.9392    1.0841    0.0000 C   0  0  0  0  0  0  0  0  0  0  0  0
    2.7462    0.9126    0.0000 C   0  0  0  0  0  0  0  0  0  0  0  0
    3.0011    0.1279    0.0000 C   0  0  0  0  0  0  0  0  0  0  0  0
    2.4491   -0.4852    0.0000 C   0  0  0  0  0  0  0  0  0  0  0  0
  1  2  2  0
  2  3  1  0
  3  4  2  0
  4  5  1  0
  5  6  2  0
  1  6  1  0
  4  7  1  0
  7  8  1  0
  8  9  2  0
  8 10  1  0
 10 11  1  0
 11 12  2  0
 11 13  1  0
  7 13  1  0
  7 14  1  0
 14 15  2  0
 15 16  1  0
 16 17  2  0
 17 18  1  0
 18 19  2  0
 14 19  1  0
M  END
>  <name>  (105) 
tacrine

>  <logBB>  (105) 
-0.12

>  <logBB_class>  (105) 
0

>  <HAC>  (105) 
19

$$$$
MolID_297
     RDKit          2D

 28 30  0  0  0  0  0  0  0  0999 V2000
   -5.6291   -4.9663    0.0000 C   0  0  0  0  0  0  0  0  0  0  0  0
   -4.9146   -5.3788    0.0000 C   0  0  0  0  0  0  0  0  0  0  0  0
   -4.9146   -6.2038    0.0000 C   0  0  0  0  0  0  0  0  0  0  0  0
   -4.2001   -6.6163    0.0000 C   0  0  0  0  0  0  0  0  0  0  0  0
   -4.2001   -7.4413    0.0000 C   0  0  0  0  0  0  0  0  0  0  0  0
   -3.4857   -7.8538    0.0000 C   0  0  0  0  0  0  0  0  0  0  0  0
   -3.4857   -8.6788    0.0000 C   0  0  0  0  0  0  0  0  0  0  0  0
   -4.2001   -9.0913    0.0000 C   0  0  0  0  0  0  0  0  0  0  0  0
   -4.9146   -8.6788    0.0000 C   0  0  0  0  0  0  0  0  0  0  0  0
   -4.9146   -7.8538    0.0000 C   0  0  0  0  0  0  0  0  0  0  0  0
   -3.4857   -6.2038    0.0000 C   0  0  0  0  0  0  0  0  0  0  0  0
   -3.4857   -5.3788    0.0000 C   0  0  0  0  0  0  0  0  0  0  0  0
   -2.7712   -4.9663    0.0000 C   0  0  0  0  0  0  0  0  0  0  0  0
   -2.0567   -5.3788    0.0000 C   0  0  0  0  0  0  0  0  0  0  0  0
   -2.0567   -6.2038    0.0000 C   0  0  0  0  0  0  0  0  0  0  0  0
   -2.7712   -6.6163    0.0000 C   0  0  0  0  0  0  0  0  0  0  0  0
   -1.3422   -4.9663    0.0000 O   0  0  0  0  0  0  0  0  0  0  0  0
   -0.6278   -5.3788    0.0000 C   0  0  0  0  0  0  0  0  0  0  0  0
    0.0867   -4.9663    0.0000 C   0  0  0  0  0  0  0  0  0  0  0  0
    0.8012   -5.3788    0.0000 N   0  0  0  0  0  0  0  0  0  0  0  0
    1.5156   -4.9663    0.0000 C   0  0  0  0  0  0  0  0  0  0  0  0
    0.8012   -6.2038    0.0000 C   0  0  0  0  0  0  0  0  0  0  0  0
   -5.6291   -6.6163    0.0000 C   0  0  0  0  0  0  0  0  0  0  0  0
   -5.6291   -7.4413    0.0000 C   0  0  0  0  0  0  0  0  0  0  0  0
   -6.3435   -7.8538    0.0000 C   0  0  0  0  0  0  0  0  0  0  0  0
   -7.0580   -7.4413    0.0000 C   0  0  0  0  0  0  0  0  0  0  0  0
   -7.0580   -6.6163    0.0000 C   0  0  0  0  0  0  0  0  0  0  0  0
   -6.3435   -6.2038    0.0000 C   0  0  0  0  0  0  0  0  0  0  0  0
  1  2  1  0
  3  2  1  0
  3  4  2  3
  4  5  1  0
  5  6  2  0
  6  7  1  0
  7  8  2  0
  8  9  1  0
  9 10  2  0
  5 10  1  0
  4 11  1  0
 11 12  2  0
 12 13  1  0
 13 14  2  0
 14 15  1  0
 15 16  2  0
 11 16  1  0
 14 17  1  0
 17 18  1  0
 18 19  1  0
 19 20  1  0
 20 21  1  0
 20 22  1  0
  3 23  1  0
 23 24  2  0
 24 25  1  0
 25 26  2  0
 26 27  1  0
 27 28  2  0
 23 28  1  0
M  END
>  <name>  (106) 
tamoxifen

>  <logBB>  (106) 
0.92

>  <logBB_class>  (106) 
1

>  <HAC>  (106) 
28

$$$$
MolID_298
     RDKit          2D

 10 10  0  0  0  0  0  0  0  0999 V2000
    0.7784    2.9516    0.0000 C   0  0  0  0  0  0  0  0  0  0  0  0
    0.7784    2.1266    0.0000 C   0  0  0  0  0  0  0  0  0  0  0  0
   -0.0466    2.1266    0.0000 C   0  0  0  0  0  0  0  0  0  0  0  0
    1.6034    2.1266    0.0000 C   0  0  0  0  0  0  0  0  0  0  0  0
    0.7784    1.3016    0.0000 C   0  0  0  0  0  0  0  0  0  0  0  0
    1.4928    0.8891    0.0000 C   0  0  0  0  0  0  0  0  0  0  0  0
    1.4928    0.0641    0.0000 C   0  0  0  0  0  0  0  0  0  0  0  0
    0.7784   -0.3484    0.0000 C   0  0  0  0  0  0  0  0  0  0  0  0
    0.0639    0.0641    0.0000 C   0  0  0  0  0  0  0  0  0  0  0  0
    0.0639    0.8891    0.0000 C   0  0  0  0  0  0  0  0  0  0  0  0
  1  2  1  0
  2  3  1  0
  2  4  1  0
  2  5  1  0
  5  6  1  0
  6  7  1  0
  7  8  1  0
  8  9  1  0
  9 10  1  0
  5 10  1  0
M  END
>  <name>  (107) 
t-butylcyclohexane

>  <logBB>  (107) 
0.61

>  <logBB_class>  (107) 
1

>  <HAC>  (107) 
10

$$$$
MolID_299
     RDKit          2D

  7  6  0  0  0  0  0  0  0  0999 V2000
    0.8250    0.0000    0.0000 C   0  0  0  0  0  0  0  0  0  0  0  0
    1.2375    0.7145    0.0000 C   0  0  0  0  0  0  0  0  0  0  0  0
    1.6500    1.4289    0.0000 F   0  0  0  0  0  0  0  0  0  0  0  0
    0.5230    1.1270    0.0000 F   0  0  0  0  0  0  0  0  0  0  0  0
    1.9520    0.3020    0.0000 F   0  0  0  0  0  0  0  0  0  0  0  0
    1.2375   -0.7145    0.0000 F   0  0  0  0  0  0  0  0  0  0  0  0
    0.0000    0.0000    0.0000 Br  0  0  0  0  0  0  0  0  0  0  0  0
  1  2  1  0
  2  3  1  0
  2  4  1  0
  2  5  1  0
  1  6  1  0
  1  7  1  0
M  END
>  <name>  (108) 
tefluranum

>  <logBB>  (108) 
0.27

>  <logBB_class>  (108) 
1

>  <HAC>  (108) 
7

$$$$
MolID_300
     RDKit          2D

 28 30  0  0  0  0  0  0  0  0999 V2000
   -0.7291   -8.6560    0.0000 C   0  0  0  0  0  0  0  0  0  0  0  0
   -0.7291   -7.8310    0.0000 C   0  0  0  0  0  0  0  0  0  0  0  0
   -1.4436   -7.4185    0.0000 N   0  0  0  0  0  0  0  0  0  0  0  0
   -1.4436   -6.5935    0.0000 C   0  0  0  0  0  0  0  0  0  0  0  0
   -0.7291   -6.1810    0.0000 C   0  0  0  0  0  0  0  0  0  0  0  0
   -0.0146   -6.5935    0.0000 C   0  0  0  0  0  0  0  0  0  0  0  0
   -0.0146   -7.4185    0.0000 C   0  0  0  0  0  0  0  0  0  0  0  0
   -0.7291   -5.3560    0.0000 C   0  0  0  0  0  0  0  0  0  0  0  0
   -0.0146   -4.9435    0.0000 C   0  0  0  0  0  0  0  0  0  0  0  0
   -0.0146   -4.1185    0.0000 C   0  0  0  0  0  0  0  0  0  0  0  0
    0.6998   -3.7060    0.0000 N   0  0  0  0  0  0  0  0  0  0  0  0
    1.4143   -4.1185    0.0000 C   0  0  0  0  0  0  0  0  0  0  0  0
    1.4143   -4.9435    0.0000 N   0  0  0  0  0  0  0  0  0  0  0  0
    0.6998   -5.3560    0.0000 C   0  0  0  0  0  0  0  0  0  0  0  0
    0.6998   -6.1810    0.0000 O   0  0  0  0  0  0  0  0  0  0  0  0
    2.1288   -3.7060    0.0000 N   0  0  0  0  0  0  0  0  0  0  0  0
    2.8433   -4.1185    0.0000 C   0  0  0  0  0  0  0  0  0  0  0  0
    3.5577   -3.7060    0.0000 C   0  0  0  0  0  0  0  0  0  0  0  0
    4.2722   -4.1185    0.0000 C   0  0  0  0  0  0  0  0  0  0  0  0
    4.9867   -3.7060    0.0000 C   0  0  0  0  0  0  0  0  0  0  0  0
    5.7011   -4.1185    0.0000 C   0  0  0  0  0  0  0  0  0  0  0  0
    6.4156   -3.7060    0.0000 N   0  0  0  0  0  0  0  0  0  0  0  0
    7.1301   -4.1185    0.0000 C   0  0  0  0  0  0  0  0  0  0  0  0
    7.1301   -4.9435    0.0000 C   0  0  0  0  0  0  0  0  0  0  0  0
    6.4156   -5.3560    0.0000 C   0  0  0  0  0  0  0  0  0  0  0  0
    5.7011   -4.9435    0.0000 C   0  0  0  0  0  0  0  0  0  0  0  0
    4.9867   -5.3560    0.0000 C   0  0  0  0  0  0  0  0  0  0  0  0
    7.8446   -5.3560    0.0000 Br  0  0  0  0  0  0  0  0  0  0  0  0
  1  2  1  0
  2  3  2  0
  3  4  1  0
  4  5  2  0
  5  6  1  0
  6  7  2  0
  2  7  1  0
  5  8  1  0
  8  9  1  0
  9 10  2  0
 10 11  1  0
 11 12  2  0
 12 13  1  0
 13 14  1  0
  9 14  1  0
 14 15  2  0
 12 16  1  0
 16 17  1  0
 17 18  1  0
 18 19  1  0
 19 20  1  0
 20 21  1  0
 21 22  2  0
 22 23  1  0
 23 24  2  0
 24 25  1  0
 25 26  2  0
 21 26  1  0
 26 27  1  0
 24 28  1  0
M  END
>  <name>  (109) 
temelastine

>  <logBB>  (109) 
-1.88

>  <logBB_class>  (109) 
0

>  <HAC>  (109) 
28

$$$$
MolID_301
     RDKit          2D

 22 23  0  0  0  0  0  0  0  0999 V2000
   -3.6309   -5.4056    0.0000 C   0  0  0  0  0  0  0  0  0  0  0  0
   -2.9164   -4.9931    0.0000 C   0  0  0  0  0  0  0  0  0  0  0  0
   -2.5039   -5.7076    0.0000 C   0  0  0  0  0  0  0  0  0  0  0  0
   -3.3289   -4.2786    0.0000 C   0  0  0  0  0  0  0  0  0  0  0  0
   -2.2019   -4.5806    0.0000 C   0  0  0  0  0  0  0  0  0  0  0  0
   -1.4874   -4.1681    0.0000 C   0  0  0  0  0  0  0  0  0  0  0  0
   -0.7730   -3.7556    0.0000 C   0  0  0  0  0  0  0  0  0  0  0  0
   -0.0585   -4.1681    0.0000 C   0  0  0  0  0  0  0  0  0  0  0  0
    0.6560   -3.7556    0.0000 C   0  0  0  0  0  0  0  0  0  0  0  0
    0.6560   -2.9306    0.0000 N   0  0  0  0  0  0  0  0  0  0  0  0
   -0.0585   -2.5181    0.0000 C   0  0  0  0  0  0  0  0  0  0  0  0
    1.3704   -2.5181    0.0000 C   0  0  0  0  0  0  0  0  0  0  0  0
    1.3704   -1.6931    0.0000 C   0  0  0  0  0  0  0  0  0  0  0  0
    0.6560   -1.2806    0.0000 C   0  0  0  0  0  0  0  0  0  0  0  0
    0.6560   -0.4556    0.0000 C   0  0  0  0  0  0  0  0  0  0  0  0
    1.3704   -0.0431    0.0000 C   0  0  0  0  0  0  0  0  0  0  0  0
    2.0849   -0.4556    0.0000 C   0  0  0  0  0  0  0  0  0  0  0  0
    2.7994   -0.0431    0.0000 C   0  0  0  0  0  0  0  0  0  0  0  0
    3.5139   -0.4556    0.0000 C   0  0  0  0  0  0  0  0  0  0  0  0
    3.5139   -1.2806    0.0000 C   0  0  0  0  0  0  0  0  0  0  0  0
    2.7994   -1.6931    0.0000 C   0  0  0  0  0  0  0  0  0  0  0  0
    2.0849   -1.2806    0.0000 C   0  0  0  0  0  0  0  0  0  0  0  0
  1  2  1  0
  2  3  1  0
  2  4  1  0
  2  5  1  0
  5  6  3  0
  6  7  1  0
  7  8  2  3
  8  9  1  0
  9 10  1  0
 10 11  1  0
 10 12  1  0
 12 13  1  0
 13 14  2  0
 14 15  1  0
 15 16  2  0
 16 17  1  0
 17 18  2  0
 18 19  1  0
 19 20  2  0
 20 21  1  0
 21 22  2  0
 17 22  1  0
 13 22  1  0
M  END
>  <name>  (110) 
terbinafine

>  <logBB>  (110) 
0.08

>  <logBB_class>  (110) 
1

>  <HAC>  (110) 
22

$$$$
MolID_302
     RDKit          2D

 35 38  0  0  0  0  0  0  0  0999 V2000
    7.3145    2.7445    0.0000 C   0  0  0  0  0  0  0  0  0  0  0  0
    7.3145    1.9195    0.0000 C   0  0  0  0  0  0  0  0  0  0  0  0
    6.4895    1.9195    0.0000 C   0  0  0  0  0  0  0  0  0  0  0  0
    8.1395    1.9195    0.0000 C   0  0  0  0  0  0  0  0  0  0  0  0
    7.3145    1.0945    0.0000 C   0  0  0  0  0  0  0  0  0  0  0  0
    8.0289    0.6820    0.0000 C   0  0  0  0  0  0  0  0  0  0  0  0
    8.0289   -0.1430    0.0000 C   0  0  0  0  0  0  0  0  0  0  0  0
    7.3145   -0.5555    0.0000 C   0  0  0  0  0  0  0  0  0  0  0  0
    6.6000   -0.1430    0.0000 C   0  0  0  0  0  0  0  0  0  0  0  0
    6.6000    0.6820    0.0000 C   0  0  0  0  0  0  0  0  0  0  0  0
    7.3145   -1.3805    0.0000 C   0  0  0  0  0  0  0  0  0  0  0  0
    8.0289   -1.7930    0.0000 C   0  0  0  0  0  0  0  0  0  0  0  0
    8.0289   -2.6180    0.0000 C   0  0  0  0  0  0  0  0  0  0  0  0
    8.7434   -3.0305    0.0000 C   0  0  0  0  0  0  0  0  0  0  0  0
    8.7434   -3.8555    0.0000 N   0  0  0  0  0  0  0  0  0  0  0  0
    9.4579   -4.2680    0.0000 C   0  0  0  0  0  0  0  0  0  0  0  0
    9.4579   -5.0930    0.0000 C   0  0  0  0  0  0  0  0  0  0  0  0
    8.7434   -5.5055    0.0000 C   0  0  0  0  0  0  0  0  0  0  0  0
    8.0289   -5.0930    0.0000 C   0  0  0  0  0  0  0  0  0  0  0  0
    8.0289   -4.2680    0.0000 C   0  0  0  0  0  0  0  0  0  0  0  0
    8.7434   -6.3305    0.0000 C   0  0  0  0  0  0  0  0  0  0  0  0
    8.7434   -7.1555    0.0000 C   0  0  0  0  0  0  0  0  0  0  0  0
    9.4579   -7.5680    0.0000 C   0  0  0  0  0  0  0  0  0  0  0  0
    9.4579   -8.3930    0.0000 C   0  0  0  0  0  0  0  0  0  0  0  0
    8.7434   -8.8055    0.0000 C   0  0  0  0  0  0  0  0  0  0  0  0
    8.0289   -8.3930    0.0000 C   0  0  0  0  0  0  0  0  0  0  0  0
    8.0289   -7.5680    0.0000 C   0  0  0  0  0  0  0  0  0  0  0  0
    7.9184   -6.3305    0.0000 C   0  0  0  0  0  0  0  0  0  0  0  0
    7.5059   -7.0450    0.0000 C   0  0  0  0  0  0  0  0  0  0  0  0
    6.6809   -7.0450    0.0000 C   0  0  0  0  0  0  0  0  0  0  0  0
    6.2684   -6.3305    0.0000 C   0  0  0  0  0  0  0  0  0  0  0  0
    6.6809   -5.6161    0.0000 C   0  0  0  0  0  0  0  0  0  0  0  0
    7.5059   -5.6161    0.0000 C   0  0  0  0  0  0  0  0  0  0  0  0
    9.5684   -6.3305    0.0000 O   0  0  0  0  0  0  0  0  0  0  0  0
    6.6000   -1.7930    0.0000 O   0  0  0  0  0  0  0  0  0  0  0  0
  1  2  1  0
  2  3  1  0
  2  4  1  0
  2  5  1  0
  5  6  2  0
  6  7  1  0
  7  8  2  0
  8  9  1  0
  9 10  2  0
  5 10  1  0
  8 11  1  0
 11 12  1  0
 12 13  1  0
 13 14  1  0
 14 15  1  0
 15 16  1  0
 16 17  1  0
 17 18  1  0
 18 19  1  0
 19 20  1  0
 15 20  1  0
 18 21  1  0
 21 22  1  0
 22 23  2  0
 23 24  1  0
 24 25  2  0
 25 26  1  0
 26 27  2  0
 22 27  1  0
 21 28  1  0
 28 29  2  0
 29 30  1  0
 30 31  2  0
 31 32  1  0
 32 33  2  0
 28 33  1  0
 21 34  1  0
 11 35  1  0
M  END
>  <name>  (111) 
terfenadine

>  <logBB>  (111) 
0.64

>  <logBB_class>  (111) 
1

>  <HAC>  (111) 
35

$$$$
MolID_303
     RDKit          2D

  7  6  0  0  0  0  0  0  0  0999 V2000
    2.4591   -1.5014    0.0000 C   0  0  0  0  0  0  0  0  0  0  0  0
    1.6341   -1.5014    0.0000 C   0  0  0  0  0  0  0  0  0  0  0  0
    1.2216   -0.7869    0.0000 C   0  0  0  0  0  0  0  0  0  0  0  0
    1.9361   -0.3744    0.0000 C   0  0  0  0  0  0  0  0  0  0  0  0
    0.5071   -1.1994    0.0000 C   0  0  0  0  0  0  0  0  0  0  0  0
    0.8091   -0.0724    0.0000 O   0  0  0  0  0  0  0  0  0  0  0  0
   -0.0159   -0.0724    0.0000 C   0  0  0  0  0  0  0  0  0  0  0  0
  1  2  1  0
  2  3  1  0
  3  4  1  0
  3  5  1  0
  3  6  1  0
  6  7  1  0
M  END
>  <name>  (112) 
tert-amylmethylether

>  <logBB>  (112) 
0.17

>  <logBB_class>  (112) 
1

>  <HAC>  (112) 
7

$$$$
MolID_304
     RDKit          2D

  5  4  0  0  0  0  0  0  0  0999 V2000
    0.9820   -0.8526    0.0000 C   0  0  0  0  0  0  0  0  0  0  0  0
    0.9820   -0.0276    0.0000 C   0  0  0  0  0  0  0  0  0  0  0  0
    0.9820    0.7974    0.0000 C   0  0  0  0  0  0  0  0  0  0  0  0
    1.8070   -0.0276    0.0000 C   0  0  0  0  0  0  0  0  0  0  0  0
    0.1570   -0.0276    0.0000 O   0  0  0  0  0  0  0  0  0  0  0  0
  1  2  1  0
  2  3  1  0
  2  4  1  0
  2  5  1  0
M  END
>  <name>  (113) 
tert-butylalcohol

>  <logBB>  (113) 
0.11

>  <logBB_class>  (113) 
1

>  <HAC>  (113) 
5

$$$$
MolID_305
     RDKit          2D

 10 10  0  0  0  0  0  0  0  0999 V2000
    0.7575    2.9699    0.0000 C   0  0  0  0  0  0  0  0  0  0  0  0
    0.7575    2.1449    0.0000 C   0  0  0  0  0  0  0  0  0  0  0  0
   -0.0675    2.1449    0.0000 C   0  0  0  0  0  0  0  0  0  0  0  0
    1.5825    2.1449    0.0000 C   0  0  0  0  0  0  0  0  0  0  0  0
    0.7575    1.3199    0.0000 C   0  0  0  0  0  0  0  0  0  0  0  0
    1.4720    0.9074    0.0000 C   0  0  0  0  0  0  0  0  0  0  0  0
    1.4720    0.0824    0.0000 C   0  0  0  0  0  0  0  0  0  0  0  0
    0.7575   -0.3301    0.0000 C   0  0  0  0  0  0  0  0  0  0  0  0
    0.0431    0.0824    0.0000 C   0  0  0  0  0  0  0  0  0  0  0  0
    0.0431    0.9074    0.0000 C   0  0  0  0  0  0  0  0  0  0  0  0
  1  2  1  0
  2  3  1  0
  2  4  1  0
  2  5  1  0
  5  6  2  0
  6  7  1  0
  7  8  2  0
  8  9  1  0
  9 10  2  0
  5 10  1  0
M  END
>  <name>  (114) 
tert-butylbenzene

>  <logBB>  (114) 
0.43

>  <logBB_class>  (114) 
1

>  <HAC>  (114) 
10

$$$$
MolID_306
     RDKit          2D

  7  6  0  0  0  0  0  0  0  0999 V2000
    0.0702   -1.9862    0.0000 C   0  0  0  0  0  0  0  0  0  0  0  0
    0.0702   -1.1612    0.0000 C   0  0  0  0  0  0  0  0  0  0  0  0
    0.7847   -0.7487    0.0000 O   0  0  0  0  0  0  0  0  0  0  0  0
    0.7847    0.0763    0.0000 C   0  0  0  0  0  0  0  0  0  0  0  0
    0.7847    0.9013    0.0000 C   0  0  0  0  0  0  0  0  0  0  0  0
    1.6097    0.0763    0.0000 C   0  0  0  0  0  0  0  0  0  0  0  0
   -0.0403    0.0763    0.0000 C   0  0  0  0  0  0  0  0  0  0  0  0
  1  2  1  0
  2  3  1  0
  3  4  1  0
  4  5  1  0
  4  6  1  0
  4  7  1  0
M  END
>  <name>  (115) 
tert-butylethylether

>  <logBB>  (115) 
0.22

>  <logBB_class>  (115) 
1

>  <HAC>  (115) 
7

$$$$
MolID_307
     RDKit          2D

  6  5  0  0  0  0  0  0  0  0999 V2000
    1.5958   -1.5866    0.0000 C   0  0  0  0  0  0  0  0  0  0  0  0
    1.1833   -0.8721    0.0000 C   0  0  0  0  0  0  0  0  0  0  0  0
    1.8978   -0.4596    0.0000 C   0  0  0  0  0  0  0  0  0  0  0  0
    0.4688   -1.2846    0.0000 C   0  0  0  0  0  0  0  0  0  0  0  0
    0.7708   -0.1576    0.0000 O   0  0  0  0  0  0  0  0  0  0  0  0
   -0.0542   -0.1576    0.0000 C   0  0  0  0  0  0  0  0  0  0  0  0
  1  2  1  0
  2  3  1  0
  2  4  1  0
  2  5  1  0
  5  6  1  0
M  END
>  <name>  (116) 
tert-butylmethylether

>  <logBB>  (116) 
0.36

>  <logBB_class>  (116) 
1

>  <HAC>  (116) 
6

$$$$
MolID_308
     RDKit          2D

 13 14  0  0  0  0  0  0  0  0999 V2000
   -0.3984    0.7541    0.0000 C   0  0  0  0  0  0  0  0  0  0  0  0
   -0.1435   -0.0305    0.0000 N   0  0  0  0  0  0  0  0  0  0  0  0
   -0.6284   -0.6979    0.0000 C   0  0  0  0  0  0  0  0  0  0  0  0
   -0.1435   -1.3654    0.0000 N   0  0  0  0  0  0  0  0  0  0  0  0
    0.6411   -1.1104    0.0000 C   0  0  0  0  0  0  0  0  0  0  0  0
    0.6411   -0.2854    0.0000 C   0  0  0  0  0  0  0  0  0  0  0  0
    1.3556    0.1271    0.0000 C   0  0  0  0  0  0  0  0  0  0  0  0
    1.3556    0.9521    0.0000 O   0  0  0  0  0  0  0  0  0  0  0  0
    2.0701   -0.2854    0.0000 N   0  0  0  0  0  0  0  0  0  0  0  0
    2.0701   -1.1104    0.0000 C   0  0  0  0  0  0  0  0  0  0  0  0
    2.7845   -1.5229    0.0000 O   0  0  0  0  0  0  0  0  0  0  0  0
    1.3556   -1.5229    0.0000 N   0  0  0  0  0  0  0  0  0  0  0  0
    1.3556   -2.3479    0.0000 C   0  0  0  0  0  0  0  0  0  0  0  0
  1  2  1  0
  2  3  1  0
  3  4  2  0
  4  5  1  0
  5  6  2  0
  2  6  1  0
  6  7  1  0
  7  8  2  0
  7  9  1  0
  9 10  1  0
 10 11  2  0
 10 12  1  0
  5 12  1  0
 12 13  1  0
M  END
>  <name>  (117) 
theobromine

>  <logBB>  (117) 
-0.29

>  <logBB_class>  (117) 
0

>  <HAC>  (117) 
13

$$$$
MolID_310
     RDKit          2D

  8  8  0  0  0  0  0  0  0  0999 V2000
    0.5678    1.1143    0.0000 C   0  0  0  0  0  0  0  0  0  0  0  0
    1.2352    0.6294    0.0000 C   0  0  0  0  0  0  0  0  0  0  0  0
    0.9803   -0.1553    0.0000 S   0  0  0  0  0  0  0  0  0  0  0  0
    0.1553   -0.1553    0.0000 C   0  0  0  0  0  0  0  0  0  0  0  0
   -0.0996    0.6294    0.0000 N   0  0  0  0  0  0  0  0  0  0  0  0
   -0.3296   -0.8227    0.0000 C   0  0  0  0  0  0  0  0  0  0  0  0
   -1.1501   -0.7365    0.0000 C   0  0  0  0  0  0  0  0  0  0  0  0
   -1.6350   -1.4039    0.0000 N   0  0  0  0  0  0  0  0  0  0  0  0
  1  2  2  0
  2  3  1  0
  3  4  1  0
  4  5  2  0
  1  5  1  0
  4  6  1  0
  6  7  1  0
  7  8  1  0
M  END
>  <name>  (118) 
thiazole-22-aminoethyl

>  <logBB>  (118) 
-0.42

>  <logBB_class>  (118) 
0

>  <HAC>  (118) 
8

$$$$
MolID_311
     RDKit          2D

 16 16  0  0  0  0  0  0  0  0999 V2000
    0.4069    4.0688    0.0000 C   0  0  0  0  0  0  0  0  0  0  0  0
    0.1248    3.2936    0.0000 C   0  0  0  0  0  0  0  0  0  0  0  0
    0.6551    2.6616    0.0000 C   0  0  0  0  0  0  0  0  0  0  0  0
    0.3729    1.8864    0.0000 C   0  0  0  0  0  0  0  0  0  0  0  0
   -0.4396    1.7431    0.0000 C   0  0  0  0  0  0  0  0  0  0  0  0
    0.9032    1.2544    0.0000 C   0  0  0  0  0  0  0  0  0  0  0  0
    1.6177    0.8419    0.0000 C   0  0  0  0  0  0  0  0  0  0  0  0
    2.3322    1.2544    0.0000 O   0  0  0  0  0  0  0  0  0  0  0  0
    1.6177    0.0169    0.0000 N   0  0  0  0  0  0  0  0  0  0  0  0
    0.9032   -0.3956    0.0000 C   0  0  0  0  0  0  0  0  0  0  0  0
    0.9032   -1.2206    0.0000 S   0  0  0  0  0  0  0  0  0  0  0  0
    0.1887    0.0169    0.0000 N   0  0  0  0  0  0  0  0  0  0  0  0
    0.1887    0.8419    0.0000 C   0  0  0  0  0  0  0  0  0  0  0  0
   -0.5257    1.2544    0.0000 O   0  0  0  0  0  0  0  0  0  0  0  0
    1.4335    1.8864    0.0000 C   0  0  0  0  0  0  0  0  0  0  0  0
    1.1513    2.6616    0.0000 C   0  0  0  0  0  0  0  0  0  0  0  0
  1  2  1  0
  2  3  1  0
  3  4  1  0
  4  5  1  0
  4  6  1  0
  6  7  1  0
  7  8  2  0
  7  9  1  0
  9 10  1  0
 10 11  2  0
 10 12  1  0
 12 13  1  0
  6 13  1  0
 13 14  2  0
  6 15  1  0
 15 16  1  0
M  END
>  <name>  (119) 
thiopental

>  <logBB>  (119) 
-0.19

>  <logBB_class>  (119) 
0

>  <HAC>  (119) 
16

$$$$
MolID_313
     RDKit          2D

 25 28  0  0  0  0  0  0  0  0999 V2000
    4.3774   -2.4682    0.0000 C   0  0  0  0  0  0  0  0  0  0  0  0
    3.6629   -2.8807    0.0000 N   0  0  0  0  0  0  0  0  0  0  0  0
    3.6629   -3.7057    0.0000 C   0  0  0  0  0  0  0  0  0  0  0  0
    2.9484   -4.1182    0.0000 C   0  0  0  0  0  0  0  0  0  0  0  0
    2.2339   -3.7057    0.0000 C   0  0  0  0  0  0  0  0  0  0  0  0
    2.2339   -2.8807    0.0000 C   0  0  0  0  0  0  0  0  0  0  0  0
    2.9484   -2.4682    0.0000 C   0  0  0  0  0  0  0  0  0  0  0  0
    2.9484   -1.6432    0.0000 C   0  0  0  0  0  0  0  0  0  0  0  0
    2.2339   -1.2307    0.0000 C   0  0  0  0  0  0  0  0  0  0  0  0
    2.2339   -0.4057    0.0000 N   0  0  0  0  0  0  0  0  0  0  0  0
    2.9484    0.0068    0.0000 C   0  0  0  0  0  0  0  0  0  0  0  0
    3.6629   -0.4057    0.0000 C   0  0  0  0  0  0  0  0  0  0  0  0
    4.3774    0.0068    0.0000 C   0  0  0  0  0  0  0  0  0  0  0  0
    4.3774    0.8318    0.0000 C   0  0  0  0  0  0  0  0  0  0  0  0
    3.6629    1.2443    0.0000 C   0  0  0  0  0  0  0  0  0  0  0  0
    2.9484    0.8318    0.0000 C   0  0  0  0  0  0  0  0  0  0  0  0
    2.2339    1.2443    0.0000 S   0  0  0  0  0  0  0  0  0  0  0  0
    1.5195    0.8318    0.0000 C   0  0  0  0  0  0  0  0  0  0  0  0
    1.5195    0.0068    0.0000 C   0  0  0  0  0  0  0  0  0  0  0  0
    0.8050   -0.4057    0.0000 C   0  0  0  0  0  0  0  0  0  0  0  0
    0.0905    0.0068    0.0000 C   0  0  0  0  0  0  0  0  0  0  0  0
    0.0905    0.8318    0.0000 C   0  0  0  0  0  0  0  0  0  0  0  0
    0.8050    1.2443    0.0000 C   0  0  0  0  0  0  0  0  0  0  0  0
   -0.6239   -0.4057    0.0000 S   0  0  0  0  0  0  0  0  0  0  0  0
   -0.6239   -1.2307    0.0000 C   0  0  0  0  0  0  0  0  0  0  0  0
  1  2  1  0
  2  3  1  0
  3  4  1  0
  4  5  1  0
  5  6  1  0
  6  7  1  0
  2  7  1  0
  7  8  1  0
  8  9  1  0
  9 10  1  0
 10 11  1  0
 11 12  2  0
 12 13  1  0
 13 14  2  0
 14 15  1  0
 15 16  2  0
 11 16  1  0
 16 17  1  0
 17 18  1  0
 18 19  2  0
 10 19  1  0
 19 20  1  0
 20 21  2  0
 21 22  1  0
 22 23  2  0
 18 23  1  0
 21 24  1  0
 24 25  1  0
M  END
>  <name>  (120) 
thioridazine

>  <logBB>  (120) 
0.26

>  <logBB_class>  (120) 
1

>  <HAC>  (120) 
25

$$$$
MolID_314
     RDKit          2D

 23 26  0  0  0  0  0  0  0  0999 V2000
    1.1350   -0.2323    0.0000 C   0  0  0  0  0  0  0  0  0  0  0  0
    1.6668    0.3984    0.0000 C   0  0  0  0  0  0  0  0  0  0  0  0
    2.4790    0.2532    0.0000 C   0  0  0  0  0  0  0  0  0  0  0  0
    3.0108    0.8839    0.0000 C   0  0  0  0  0  0  0  0  0  0  0  0
    2.7305    1.6598    0.0000 C   0  0  0  0  0  0  0  0  0  0  0  0
    3.2623    2.2905    0.0000 C   0  0  0  0  0  0  0  0  0  0  0  0
    4.0744    2.1453    0.0000 C   0  0  0  0  0  0  0  0  0  0  0  0
    4.3547    1.3694    0.0000 C   0  0  0  0  0  0  0  0  0  0  0  0
    5.1668    1.2241    0.0000 O   0  0  0  0  0  0  0  0  0  0  0  0
    3.8229    0.7387    0.0000 C   0  0  0  0  0  0  0  0  0  0  0  0
    1.9184    1.8050    0.0000 C   0  0  0  0  0  0  0  0  0  0  0  0
    1.3865    1.1743    0.0000 C   0  0  0  0  0  0  0  0  0  0  0  0
    0.5744    1.3195    0.0000 C   0  0  0  0  0  0  0  0  0  0  0  0
   -0.0769    0.8132    0.0000 C   0  0  0  0  0  0  0  0  0  0  0  0
   -0.7598    1.2761    0.0000 C   0  0  0  0  0  0  0  0  0  0  0  0
   -0.5304    2.0686    0.0000 C   0  0  0  0  0  0  0  0  0  0  0  0
    0.2941    2.0954    0.0000 C   0  0  0  0  0  0  0  0  0  0  0  0
    0.8259    2.7261    0.0000 C   0  0  0  0  0  0  0  0  0  0  0  0
    1.6381    2.5809    0.0000 C   0  0  0  0  0  0  0  0  0  0  0  0
   -0.0658    2.8378    0.0000 C   0  0  0  0  0  0  0  0  0  0  0  0
   -1.2913    2.3875    0.0000 C   0  0  0  0  0  0  0  0  0  0  0  0
   -2.0522    2.7064    0.0000 C   0  0  0  0  0  0  0  0  0  0  0  0
   -0.6518    2.8846    0.0000 O   0  0  0  0  0  0  0  0  0  0  0  0
  1  2  1  0
  2  3  1  0
  3  4  1  0
  4  5  2  0
  5  6  1  0
  6  7  1  0
  7  8  1  0
  8  9  2  0
  8 10  1  0
  4 10  1  0
  5 11  1  0
 11 12  1  0
  2 12  1  0
 12 13  1  0
 13 14  1  0
 14 15  1  0
 15 16  1  0
 16 17  1  0
 13 17  1  0
 17 18  1  0
 18 19  1  0
 11 19  1  0
 17 20  1  0
 16 21  1  0
 21 22  3  0
 16 23  1  0
M  END
>  <name>  (121) 
tibolone

>  <logBB>  (121) 
0.4

>  <logBB_class>  (121) 
1

>  <HAC>  (121) 
23

$$$$
MolID_315
     RDKit          2D

 16 16  0  0  0  0  0  0  0  0999 V2000
   -4.4702    2.4756    0.0000 C   0  0  0  0  0  0  0  0  0  0  0  0
   -3.7557    2.0631    0.0000 C   0  0  0  0  0  0  0  0  0  0  0  0
   -3.0412    2.4756    0.0000 C   0  0  0  0  0  0  0  0  0  0  0  0
   -2.3268    2.0631    0.0000 C   0  0  0  0  0  0  0  0  0  0  0  0
   -2.3268    1.2381    0.0000 C   0  0  0  0  0  0  0  0  0  0  0  0
   -3.0412    0.8256    0.0000 C   0  0  0  0  0  0  0  0  0  0  0  0
   -3.7557    1.2381    0.0000 C   0  0  0  0  0  0  0  0  0  0  0  0
   -1.6123    2.4756    0.0000 O   0  0  0  0  0  0  0  0  0  0  0  0
   -0.8978    2.0631    0.0000 C   0  0  0  0  0  0  0  0  0  0  0  0
   -0.1833    2.4756    0.0000 C   0  0  0  0  0  0  0  0  0  0  0  0
    0.5311    2.0631    0.0000 C   0  0  0  0  0  0  0  0  0  0  0  0
    1.2456    2.4756    0.0000 N   0  0  0  0  0  0  0  0  0  0  0  0
    1.9601    2.0631    0.0000 C   0  0  0  0  0  0  0  0  0  0  0  0
    2.6745    2.4756    0.0000 C   0  0  0  0  0  0  0  0  0  0  0  0
    1.9601    1.2381    0.0000 C   0  0  0  0  0  0  0  0  0  0  0  0
   -0.1833    3.3006    0.0000 O   0  0  0  0  0  0  0  0  0  0  0  0
  1  2  1  0
  2  3  2  0
  3  4  1  0
  4  5  2  0
  5  6  1  0
  6  7  2  0
  2  7  1  0
  4  8  1  0
  8  9  1  0
  9 10  1  0
 10 11  1  0
 11 12  1  0
 12 13  1  0
 13 14  1  0
 13 15  1  0
 10 16  1  0
M  END
>  <name>  (122) 
toliprolol

>  <logBB>  (122) 
0.34

>  <logBB_class>  (122) 
1

>  <HAC>  (122) 
16

$$$$
MolID_316
     RDKit          2D

  7  7  0  0  0  0  0  0  0  0999 V2000
    0.7145    2.0625    0.0000 C   0  0  0  0  0  0  0  0  0  0  0  0
    0.7145    1.2375    0.0000 C   0  0  0  0  0  0  0  0  0  0  0  0
    1.4290    0.8250    0.0000 C   0  0  0  0  0  0  0  0  0  0  0  0
    1.4290    0.0000    0.0000 C   0  0  0  0  0  0  0  0  0  0  0  0
    0.7145   -0.4125    0.0000 C   0  0  0  0  0  0  0  0  0  0  0  0
    0.0000    0.0000    0.0000 C   0  0  0  0  0  0  0  0  0  0  0  0
    0.0000    0.8250    0.0000 C   0  0  0  0  0  0  0  0  0  0  0  0
  1  2  1  0
  2  3  2  0
  3  4  1  0
  4  5  2  0
  5  6  1  0
  6  7  2  0
  2  7  1  0
M  END
>  <name>  (123) 
toluene

>  <logBB>  (123) 
0.36

>  <logBB_class>  (123) 
1

>  <HAC>  (123) 
7

$$$$
MolID_317
     RDKit          2D

 22 22  0  0  0  0  0  0  0  0999 V2000
    2.1910    1.2812    0.0000 C   0  0  0  0  0  0  0  0  0  0  0  0
    1.4765    0.8687    0.0000 C   0  0  0  0  0  0  0  0  0  0  0  0
    1.4765    0.0437    0.0000 C   0  0  0  0  0  0  0  0  0  0  0  0
    0.7621   -0.3688    0.0000 C   0  0  0  0  0  0  0  0  0  0  0  0
    0.0476    0.0437    0.0000 C   0  0  0  0  0  0  0  0  0  0  0  0
    0.0476    0.8687    0.0000 C   0  0  0  0  0  0  0  0  0  0  0  0
    0.7621    1.2812    0.0000 C   0  0  0  0  0  0  0  0  0  0  0  0
    1.1494   -1.0972    0.0000 C   0  0  0  0  0  0  0  0  0  0  0  0
    0.3747   -1.0972    0.0000 C   0  0  0  0  0  0  0  0  0  0  0  0
    2.1910   -0.3688    0.0000 C   0  0  0  0  0  0  0  0  0  0  0  0
    2.1910   -1.1938    0.0000 C   0  0  0  0  0  0  0  0  0  0  0  0
    2.9055   -1.6063    0.0000 C   0  0  0  0  0  0  0  0  0  0  0  0
    2.9055   -2.4313    0.0000 C   0  0  0  0  0  0  0  0  0  0  0  0
    3.6199   -2.8438    0.0000 C   0  0  0  0  0  0  0  0  0  0  0  0
    3.6199   -3.6688    0.0000 C   0  0  0  0  0  0  0  0  0  0  0  0
    4.3344   -4.0813    0.0000 C   0  0  0  0  0  0  0  0  0  0  0  0
    4.3344   -4.9063    0.0000 C   0  0  0  0  0  0  0  0  0  0  0  0
    5.0489   -5.3188    0.0000 C   0  0  0  0  0  0  0  0  0  0  0  0
    5.7634   -4.9063    0.0000 O   0  0  0  0  0  0  0  0  0  0  0  0
    5.0489   -6.1438    0.0000 O   0  0  0  0  0  0  0  0  0  0  0  0
    5.0489   -3.6688    0.0000 C   0  0  0  0  0  0  0  0  0  0  0  0
    3.6199   -1.1938    0.0000 C   0  0  0  0  0  0  0  0  0  0  0  0
  1  2  1  0
  2  3  2  0
  3  4  1  0
  4  5  1  0
  5  6  1  0
  6  7  1  0
  2  7  1  0
  4  8  1  0
  4  9  1  0
  3 10  1  0
 10 11  2  3
 11 12  1  0
 12 13  2  3
 14 13  1  0
 14 15  2  3
 15 16  1  0
 16 17  2  3
 17 18  1  0
 18 19  1  0
 18 20  2  0
 16 21  1  0
 12 22  1  0
M  END
>  <name>  (124) 
tretinoin

>  <logBB>  (124) 
-0.49

>  <logBB_class>  (124) 
0

>  <HAC>  (124) 
22

$$$$
MolID_319
     RDKit          2D

  5  4  0  0  0  0  0  0  0  0999 V2000
    0.8250    0.0000    0.0000 C   0  0  0  0  0  0  0  0  0  0  0  0
    0.0000    0.0000    0.0000 C   0  0  0  0  0  0  0  0  0  0  0  0
   -0.4125   -0.7145    0.0000 Cl  0  0  0  0  0  0  0  0  0  0  0  0
   -0.4125    0.7145    0.0000 Cl  0  0  0  0  0  0  0  0  0  0  0  0
    1.2375    0.7145    0.0000 Cl  0  0  0  0  0  0  0  0  0  0  0  0
  1  2  2  0
  2  3  1  0
  2  4  1  0
  1  5  1  0
M  END
>  <name>  (125) 
trichloroethene

>  <logBB>  (125) 
0.3

>  <logBB_class>  (125) 
1

>  <HAC>  (125) 
5

$$$$
MolID_321
     RDKit          2D

 30 33  0  0  0  0  0  0  0  0999 V2000
    5.0614   -1.3107    0.0000 C   0  0  0  0  0  0  0  0  0  0  0  0
    5.7759   -1.7232    0.0000 C   0  0  0  0  0  0  0  0  0  0  0  0
    5.7759   -2.5482    0.0000 N   0  0  0  0  0  0  0  0  0  0  0  0
    5.0614   -2.9607    0.0000 C   0  0  0  0  0  0  0  0  0  0  0  0
    4.3470   -2.5482    0.0000 C   0  0  0  0  0  0  0  0  0  0  0  0
    4.3470   -1.7232    0.0000 N   0  0  0  0  0  0  0  0  0  0  0  0
    3.6325   -1.3107    0.0000 C   0  0  0  0  0  0  0  0  0  0  0  0
    2.9180   -1.7232    0.0000 C   0  0  0  0  0  0  0  0  0  0  0  0
    2.2035   -1.3107    0.0000 C   0  0  0  0  0  0  0  0  0  0  0  0
    2.2035   -0.4857    0.0000 N   0  0  0  0  0  0  0  0  0  0  0  0
    2.9180   -0.0732    0.0000 C   0  0  0  0  0  0  0  0  0  0  0  0
    3.6325   -0.4857    0.0000 C   0  0  0  0  0  0  0  0  0  0  0  0
    4.3470   -0.0732    0.0000 C   0  0  0  0  0  0  0  0  0  0  0  0
    4.3470    0.7518    0.0000 C   0  0  0  0  0  0  0  0  0  0  0  0
    3.6325    1.1643    0.0000 C   0  0  0  0  0  0  0  0  0  0  0  0
    2.9180    0.7518    0.0000 C   0  0  0  0  0  0  0  0  0  0  0  0
    2.2035    1.1643    0.0000 S   0  0  0  0  0  0  0  0  0  0  0  0
    1.4891    0.7518    0.0000 C   0  0  0  0  0  0  0  0  0  0  0  0
    1.4891   -0.0732    0.0000 C   0  0  0  0  0  0  0  0  0  0  0  0
    0.7746   -0.4857    0.0000 C   0  0  0  0  0  0  0  0  0  0  0  0
    0.0601   -0.0732    0.0000 C   0  0  0  0  0  0  0  0  0  0  0  0
    0.0601    0.7518    0.0000 C   0  0  0  0  0  0  0  0  0  0  0  0
    0.7746    1.1643    0.0000 C   0  0  0  0  0  0  0  0  0  0  0  0
   -0.6543   -0.4857    0.0000 C   0  0  0  0  0  0  0  0  0  0  0  0
   -1.3688   -0.8982    0.0000 F   0  0  0  0  0  0  0  0  0  0  0  0
   -0.2418   -1.2002    0.0000 F   0  0  0  0  0  0  0  0  0  0  0  0
   -1.0668    0.2288    0.0000 F   0  0  0  0  0  0  0  0  0  0  0  0
    6.4904   -2.9607    0.0000 C   0  0  0  0  0  0  0  0  0  0  0  0
    6.4904   -3.7857    0.0000 C   0  0  0  0  0  0  0  0  0  0  0  0
    7.2048   -4.1982    0.0000 O   0  0  0  0  0  0  0  0  0  0  0  0
  1  2  1  0
  2  3  1  0
  3  4  1  0
  4  5  1  0
  5  6  1  0
  1  6  1  0
  6  7  1  0
  7  8  1  0
  8  9  1  0
  9 10  1  0
 10 11  1  0
 11 12  2  0
 12 13  1  0
 13 14  2  0
 14 15  1  0
 15 16  2  0
 11 16  1  0
 16 17  1  0
 17 18  1  0
 18 19  2  0
 10 19  1  0
 19 20  1  0
 20 21  2  0
 21 22  1  0
 22 23  2  0
 18 23  1  0
 21 24  1  0
 24 25  1  0
 24 26  1  0
 24 27  1  0
  3 28  1  0
 28 29  1  0
 29 30  1  0
M  END
>  <name>  (126) 
triflumethazine

>  <logBB>  (126) 
1.51

>  <logBB_class>  (126) 
1

>  <HAC>  (126) 
30

$$$$
MolID_322
     RDKit          2D

  9  9  0  0  0  0  0  0  0  0999 V2000
    0.7145    2.0625    0.0000 F   0  0  0  0  0  0  0  0  0  0  0  0
    0.7145    1.2375    0.0000 C   0  0  0  0  0  0  0  0  0  0  0  0
    1.4289    0.8250    0.0000 C   0  0  0  0  0  0  0  0  0  0  0  0
    1.4289    0.0000    0.0000 C   0  0  0  0  0  0  0  0  0  0  0  0
    0.7145   -0.4125    0.0000 N   0  0  0  0  0  0  0  0  0  0  0  0
    0.0000    0.0000    0.0000 C   0  0  0  0  0  0  0  0  0  0  0  0
   -0.7145   -0.4125    0.0000 F   0  0  0  0  0  0  0  0  0  0  0  0
    0.0000    0.8250    0.0000 C   0  0  0  0  0  0  0  0  0  0  0  0
   -0.7145    1.2375    0.0000 F   0  0  0  0  0  0  0  0  0  0  0  0
  1  2  1  0
  2  3  2  0
  3  4  1  0
  4  5  2  0
  5  6  1  0
  6  7  1  0
  6  8  2  0
  2  8  1  0
  8  9  1  0
M  END
>  <name>  (127) 
trifluoroperazine

>  <logBB>  (127) 
1.44

>  <logBB_class>  (127) 
1

>  <HAC>  (127) 
9

$$$$
MolID_323
     RDKit          2D

 24 26  0  0  0  0  0  0  0  0999 V2000
   -4.2859   -0.0349    0.0000 C   0  0  0  0  0  0  0  0  0  0  0  0
   -3.5714   -0.4474    0.0000 N   0  0  0  0  0  0  0  0  0  0  0  0
   -3.5714   -1.2724    0.0000 C   0  0  0  0  0  0  0  0  0  0  0  0
   -2.8569   -0.0349    0.0000 C   0  0  0  0  0  0  0  0  0  0  0  0
   -2.1424   -0.4474    0.0000 C   0  0  0  0  0  0  0  0  0  0  0  0
   -1.4280   -0.0349    0.0000 C   0  0  0  0  0  0  0  0  0  0  0  0
   -0.7135   -0.4474    0.0000 N   0  0  0  0  0  0  0  0  0  0  0  0
   -0.7135   -1.2724    0.0000 C   0  0  0  0  0  0  0  0  0  0  0  0
   -1.4280   -1.6849    0.0000 C   0  0  0  0  0  0  0  0  0  0  0  0
   -1.4280   -2.5099    0.0000 C   0  0  0  0  0  0  0  0  0  0  0  0
   -0.7135   -2.9224    0.0000 C   0  0  0  0  0  0  0  0  0  0  0  0
    0.0010   -2.5099    0.0000 C   0  0  0  0  0  0  0  0  0  0  0  0
    0.0010   -1.6849    0.0000 C   0  0  0  0  0  0  0  0  0  0  0  0
    0.7154   -1.2724    0.0000 S   0  0  0  0  0  0  0  0  0  0  0  0
    0.7154   -0.4474    0.0000 C   0  0  0  0  0  0  0  0  0  0  0  0
    0.0010   -0.0349    0.0000 C   0  0  0  0  0  0  0  0  0  0  0  0
    0.0010    0.7901    0.0000 C   0  0  0  0  0  0  0  0  0  0  0  0
    0.7154    1.2026    0.0000 C   0  0  0  0  0  0  0  0  0  0  0  0
    1.4299    0.7901    0.0000 C   0  0  0  0  0  0  0  0  0  0  0  0
    1.4299   -0.0349    0.0000 C   0  0  0  0  0  0  0  0  0  0  0  0
    0.7154    2.0276    0.0000 C   0  0  0  0  0  0  0  0  0  0  0  0
    0.7154    2.8526    0.0000 F   0  0  0  0  0  0  0  0  0  0  0  0
    1.5404    2.0276    0.0000 F   0  0  0  0  0  0  0  0  0  0  0  0
   -0.1096    2.0276    0.0000 F   0  0  0  0  0  0  0  0  0  0  0  0
  1  2  1  0
  2  3  1  0
  2  4  1  0
  4  5  1  0
  5  6  1  0
  6  7  1  0
  7  8  1  0
  8  9  2  0
  9 10  1  0
 10 11  2  0
 11 12  1  0
 12 13  2  0
  8 13  1  0
 13 14  1  0
 14 15  1  0
 15 16  2  0
  7 16  1  0
 16 17  1  0
 17 18  2  0
 18 19  1  0
 19 20  2  0
 15 20  1  0
 18 21  1  0
 21 22  1  0
 21 23  1  0
 21 24  1  0
M  END
>  <name>  (128) 
triflupromazine

>  <logBB>  (128) 
1.44

>  <logBB_class>  (128) 
1

>  <HAC>  (128) 
24

$$$$
MolID_324
     RDKit          2D

  3  3  0  0  0  0  0  0  0  0999 V2000
    0.2382    0.8888    0.0000 C   0  0  0  0  0  0  0  0  0  0  0  0
    0.6507    0.1743    0.0000 C   0  0  0  0  0  0  0  0  0  0  0  0
   -0.1743    0.1743    0.0000 C   0  0  0  0  0  0  0  0  0  0  0  0
  1  2  1  0
  2  3  1  0
  1  3  1  0
M  END
>  <name>  (129) 
trimethylene

>  <logBB>  (129) 
0.03

>  <logBB_class>  (129) 
1

>  <HAC>  (129) 
3

$$$$
MolID_325
     RDKit          2D

  9  9  0  0  0  0  0  0  0  0999 V2000
    0.6152    2.2674    0.0000 C   0  0  0  0  0  0  0  0  0  0  0  0
    0.6152    1.4424    0.0000 C   0  0  0  0  0  0  0  0  0  0  0  0
    1.3296    1.0299    0.0000 C   0  0  0  0  0  0  0  0  0  0  0  0
    1.3296    0.2049    0.0000 C   0  0  0  0  0  0  0  0  0  0  0  0
    0.6152   -0.2076    0.0000 C   0  0  0  0  0  0  0  0  0  0  0  0
   -0.0993    0.2049    0.0000 C   0  0  0  0  0  0  0  0  0  0  0  0
   -0.0993    1.0299    0.0000 C   0  0  0  0  0  0  0  0  0  0  0  0
   -0.8138   -0.2076    0.0000 C   0  0  0  0  0  0  0  0  0  0  0  0
    0.6152   -1.0326    0.0000 C   0  0  0  0  0  0  0  0  0  0  0  0
  1  2  1  0
  2  3  1  0
  3  4  1  0
  4  5  1  0
  5  6  1  0
  6  7  1  0
  2  7  1  0
  6  8  1  0
  5  9  1  0
M  END
>  <name>  (130) 
tripropylphosphine

>  <logBB>  (130) 
1.02

>  <logBB_class>  (130) 
1

>  <HAC>  (130) 
9

$$$$
MolID_326
     RDKit          2D

  4  3  0  0  0  0  0  0  0  0999 V2000
    0.8250    0.0000    0.0000 C   0  0  0  0  0  0  0  0  0  0  0  0
    1.2375    0.7145    0.0000 O   0  0  0  0  0  0  0  0  0  0  0  0
    1.2375   -0.7145    0.0000 N   0  0  0  0  0  0  0  0  0  0  0  0
    0.0000    0.0000    0.0000 N   0  0  0  0  0  0  0  0  0  0  0  0
  1  2  2  0
  1  3  1  0
  1  4  1  0
M  END
>  <name>  (131) 
urea

>  <logBB>  (131) 
-0.14

>  <logBB_class>  (131) 
0

>  <HAC>  (131) 
4

$$$$
MolID_327
     RDKit          2D

 33 34  0  0  0  0  0  0  0  0999 V2000
   -0.7880   -2.2391    0.0000 C   0  0  0  0  0  0  0  0  0  0  0  0
   -0.3755   -2.9535    0.0000 C   0  0  0  0  0  0  0  0  0  0  0  0
    0.4495   -2.9535    0.0000 C   0  0  0  0  0  0  0  0  0  0  0  0
   -0.7880   -3.6680    0.0000 C   0  0  0  0  0  0  0  0  0  0  0  0
   -0.0735   -4.0805    0.0000 C   0  0  0  0  0  0  0  0  0  0  0  0
    0.6410   -3.6680    0.0000 C   0  0  0  0  0  0  0  0  0  0  0  0
    1.3555   -4.0805    0.0000 C   0  0  0  0  0  0  0  0  0  0  0  0
    2.0699   -3.6680    0.0000 N   0  0  0  0  0  0  0  0  0  0  0  0
    2.0699   -2.8430    0.0000 C   0  0  0  0  0  0  0  0  0  0  0  0
    2.7844   -4.0805    0.0000 C   0  0  0  0  0  0  0  0  0  0  0  0
    3.4989   -3.6680    0.0000 C   0  0  0  0  0  0  0  0  0  0  0  0
    4.2133   -4.0805    0.0000 C   0  0  0  0  0  0  0  0  0  0  0  0
    4.9278   -3.6680    0.0000 C   0  0  0  0  0  0  0  0  0  0  0  0
    5.6423   -4.0805    0.0000 C   0  0  0  0  0  0  0  0  0  0  0  0
    5.6423   -4.9055    0.0000 C   0  0  0  0  0  0  0  0  0  0  0  0
    4.9278   -5.3180    0.0000 C   0  0  0  0  0  0  0  0  0  0  0  0
    4.2133   -4.9055    0.0000 C   0  0  0  0  0  0  0  0  0  0  0  0
    6.3568   -5.3180    0.0000 O   0  0  0  0  0  0  0  0  0  0  0  0
    6.3568   -6.1430    0.0000 C   0  0  0  0  0  0  0  0  0  0  0  0
    6.3568   -3.6680    0.0000 O   0  0  0  0  0  0  0  0  0  0  0  0
    7.0712   -4.0805    0.0000 C   0  0  0  0  0  0  0  0  0  0  0  0
   -1.2005   -4.3825    0.0000 C   0  0  0  0  0  0  0  0  0  0  0  0
   -1.6130   -5.0970    0.0000 N   0  0  0  0  0  0  0  0  0  0  0  0
   -1.5024   -3.2555    0.0000 C   0  0  0  0  0  0  0  0  0  0  0  0
   -2.2169   -3.6680    0.0000 C   0  0  0  0  0  0  0  0  0  0  0  0
   -2.9314   -3.2555    0.0000 C   0  0  0  0  0  0  0  0  0  0  0  0
   -2.9314   -2.4305    0.0000 C   0  0  0  0  0  0  0  0  0  0  0  0
   -2.2169   -2.0180    0.0000 C   0  0  0  0  0  0  0  0  0  0  0  0
   -1.5024   -2.4305    0.0000 C   0  0  0  0  0  0  0  0  0  0  0  0
   -3.6458   -2.0180    0.0000 O   0  0  0  0  0  0  0  0  0  0  0  0
   -4.3603   -2.4305    0.0000 C   0  0  0  0  0  0  0  0  0  0  0  0
   -3.6458   -3.6680    0.0000 O   0  0  0  0  0  0  0  0  0  0  0  0
   -4.3603   -3.2555    0.0000 C   0  0  0  0  0  0  0  0  0  0  0  0
  1  2  1  0
  2  3  1  0
  2  4  1  0
  4  5  1  0
  5  6  1  0
  6  7  1  0
  7  8  1  0
  8  9  1  0
  8 10  1  0
 10 11  1  0
 11 12  1  0
 12 13  2  0
 13 14  1  0
 14 15  2  0
 15 16  1  0
 16 17  2  0
 12 17  1  0
 15 18  1  0
 18 19  1  0
 14 20  1  0
 20 21  1  0
  4 22  1  0
 22 23  3  0
  4 24  1  0
 24 25  2  0
 25 26  1  0
 26 27  2  0
 27 28  1  0
 28 29  2  0
 24 29  1  0
 27 30  1  0
 30 31  1  0
 26 32  1  0
 32 33  1  0
M  END
>  <name>  (132) 
verapamil

>  <logBB>  (132) 
-0.64

>  <logBB_class>  (132) 
0

>  <HAC>  (132) 
33

$$$$
MolID_329
     RDKit          2D

  8  8  0  0  0  0  0  0  0  0999 V2000
    0.0000    2.4750    0.0000 C   0  0  0  0  0  0  0  0  0  0  0  0
    0.7145    2.0625    0.0000 C   0  0  0  0  0  0  0  0  0  0  0  0
    0.7145    1.2375    0.0000 C   0  0  0  0  0  0  0  0  0  0  0  0
    1.4289    0.8250    0.0000 C   0  0  0  0  0  0  0  0  0  0  0  0
    1.4289    0.0000    0.0000 C   0  0  0  0  0  0  0  0  0  0  0  0
    0.7145   -0.4125    0.0000 C   0  0  0  0  0  0  0  0  0  0  0  0
    0.0000    0.0000    0.0000 C   0  0  0  0  0  0  0  0  0  0  0  0
    0.0000    0.8250    0.0000 C   0  0  0  0  0  0  0  0  0  0  0  0
  1  2  2  0
  2  3  1  0
  3  4  2  0
  4  5  1  0
  5  6  2  0
  6  7  1  0
  7  8  2  0
  3  8  1  0
M  END
>  <name>  (133) 
vinylbenzene

>  <logBB>  (133) 
0.45

>  <logBB_class>  (133) 
1

>  <HAC>  (133) 
8

$$$$
MolID_331
     RDKit          2D

  8  8  0  0  0  0  0  0  0  0999 V2000
   -0.1457    3.1774    0.0000 C   0  0  0  0  0  0  0  0  0  0  0  0
   -0.1457    2.3524    0.0000 C   0  0  0  0  0  0  0  0  0  0  0  0
    0.5687    1.9399    0.0000 N   0  0  0  0  0  0  0  0  0  0  0  0
    0.5687    1.1149    0.0000 C   0  0  0  0  0  0  0  0  0  0  0  0
    1.2362    0.6299    0.0000 N   0  0  0  0  0  0  0  0  0  0  0  0
    0.9812   -0.1547    0.0000 C   0  0  0  0  0  0  0  0  0  0  0  0
    0.1562   -0.1547    0.0000 C   0  0  0  0  0  0  0  0  0  0  0  0
   -0.0987    0.6299    0.0000 S   0  0  0  0  0  0  0  0  0  0  0  0
  1  2  1  0
  2  3  1  0
  3  4  1  0
  4  5  2  0
  5  6  1  0
  6  7  2  0
  7  8  1  0
  4  8  1  0
M  END
>  <name>  (134) 
Y-G16

>  <logBB>  (134) 
-0.42

>  <logBB_class>  (134) 
0

>  <HAC>  (134) 
8

$$$$
MolID_332
     RDKit          2D

 15 16  0  0  0  0  0  0  0  0999 V2000
    0.6768   -1.1880    0.0000 C   0  0  0  0  0  0  0  0  0  0  0  0
    1.3442   -1.6729    0.0000 C   0  0  0  0  0  0  0  0  0  0  0  0
    1.0893   -2.4575    0.0000 C   0  0  0  0  0  0  0  0  0  0  0  0
    0.2643   -2.4575    0.0000 O   0  0  0  0  0  0  0  0  0  0  0  0
    0.0094   -1.6729    0.0000 C   0  0  0  0  0  0  0  0  0  0  0  0
   -0.7753   -1.4180    0.0000 C   0  0  0  0  0  0  0  0  0  0  0  0
   -0.9468   -0.6110    0.0000 O   0  0  0  0  0  0  0  0  0  0  0  0
    1.5742   -3.1250    0.0000 N   0  0  0  0  0  0  0  0  0  0  0  0
    2.3947   -3.0387    0.0000 C   0  0  0  0  0  0  0  0  0  0  0  0
    2.8796   -3.7062    0.0000 C   0  0  0  0  0  0  0  0  0  0  0  0
    2.5441   -4.4598    0.0000 C   0  0  0  0  0  0  0  0  0  0  0  0
    1.7236   -4.5461    0.0000 N   0  0  0  0  0  0  0  0  0  0  0  0
    1.2387   -3.8786    0.0000 C   0  0  0  0  0  0  0  0  0  0  0  0
    0.4182   -3.9649    0.0000 O   0  0  0  0  0  0  0  0  0  0  0  0
    3.0290   -5.1273    0.0000 N   0  0  0  0  0  0  0  0  0  0  0  0
  1  2  1  0
  2  3  1  0
  3  4  1  0
  4  5  1  0
  1  5  1  0
  5  6  1  0
  6  7  1  0
  3  8  1  0
  8  9  1  0
  9 10  2  0
 10 11  1  0
 11 12  2  0
 12 13  1  0
  8 13  1  0
 13 14  2  0
 11 15  1  0
M  END
>  <name>  (135) 
zalcitabine

>  <logBB>  (135) 
-1.18

>  <logBB_class>  (135) 
0

>  <HAC>  (135) 
15

$$$$
MolID_333
     RDKit          2D

 28 31  0  0  0  0  0  0  0  0999 V2000
    4.4576    1.8247    0.0000 C   0  0  0  0  0  0  0  0  0  0  0  0
    4.8155    1.0814    0.0000 C   0  0  0  0  0  0  0  0  0  0  0  0
    4.4576    0.3381    0.0000 C   0  0  0  0  0  0  0  0  0  0  0  0
    3.6533    0.1545    0.0000 N   0  0  0  0  0  0  0  0  0  0  0  0
    3.0082    0.6689    0.0000 C   0  0  0  0  0  0  0  0  0  0  0  0
    3.0082    1.4939    0.0000 C   0  0  0  0  0  0  0  0  0  0  0  0
    3.6533    2.0082    0.0000 C   0  0  0  0  0  0  0  0  0  0  0  0
    2.2938    1.9064    0.0000 C   0  0  0  0  0  0  0  0  0  0  0  0
    1.5793    1.4939    0.0000 C   0  0  0  0  0  0  0  0  0  0  0  0
    1.5793    0.6689    0.0000 C   0  0  0  0  0  0  0  0  0  0  0  0
    2.2938    0.2564    0.0000 C   0  0  0  0  0  0  0  0  0  0  0  0
    0.8648    0.2564    0.0000 C   0  0  0  0  0  0  0  0  0  0  0  0
    0.8648   -0.5686    0.0000 O   0  0  0  0  0  0  0  0  0  0  0  0
    0.1504    0.6689    0.0000 C   0  0  0  0  0  0  0  0  0  0  0  0
   -0.5641    0.2564    0.0000 C   0  0  0  0  0  0  0  0  0  0  0  0
   -1.2786    0.6689    0.0000 C   0  0  0  0  0  0  0  0  0  0  0  0
   -1.9931    0.2564    0.0000 C   0  0  0  0  0  0  0  0  0  0  0  0
   -2.7075    0.6689    0.0000 C   0  0  0  0  0  0  0  0  0  0  0  0
   -2.7075    1.4939    0.0000 N   0  0  0  0  0  0  0  0  0  0  0  0
   -1.9931    1.9064    0.0000 C   0  0  0  0  0  0  0  0  0  0  0  0
   -1.2786    1.4939    0.0000 C   0  0  0  0  0  0  0  0  0  0  0  0
   -3.4220    1.9064    0.0000 C   0  0  0  0  0  0  0  0  0  0  0  0
   -3.4220    2.7314    0.0000 C   0  0  0  0  0  0  0  0  0  0  0  0
   -4.1365    3.1439    0.0000 C   0  0  0  0  0  0  0  0  0  0  0  0
   -4.1365    3.9689    0.0000 C   0  0  0  0  0  0  0  0  0  0  0  0
   -3.4220    4.3814    0.0000 C   0  0  0  0  0  0  0  0  0  0  0  0
   -2.7075    3.9689    0.0000 C   0  0  0  0  0  0  0  0  0  0  0  0
   -2.7075    3.1439    0.0000 C   0  0  0  0  0  0  0  0  0  0  0  0
  1  2  1  0
  2  3  1  0
  3  4  1  0
  4  5  1  0
  5  6  2  0
  6  7  1  0
  1  7  1  0
  6  8  1  0
  8  9  2  0
  9 10  1  0
 10 11  2  0
  5 11  1  0
 10 12  1  0
 12 13  2  0
 12 14  1  0
 14 15  1  0
 15 16  1  0
 16 17  1  0
 17 18  1  0
 18 19  1  0
 19 20  1  0
 20 21  1  0
 16 21  1  0
 19 22  1  0
 22 23  1  0
 23 24  2  0
 24 25  1  0
 25 26  2  0
 26 27  1  0
 27 28  2  0
 23 28  1  0
M  END
>  <name>  (136) 
zanapezil

>  <logBB>  (136) 
1.14

>  <logBB_class>  (136) 
1

>  <HAC>  (136) 
28

$$$$
MolID_334
     RDKit          2D

 19 20  0  0  0  0  0  0  0  0999 V2000
   -0.0498    4.8132    0.0000 C   0  0  0  0  0  0  0  0  0  0  0  0
   -0.7643    4.4007    0.0000 C   0  0  0  0  0  0  0  0  0  0  0  0
   -0.7643    3.5757    0.0000 C   0  0  0  0  0  0  0  0  0  0  0  0
   -1.4787    3.1632    0.0000 N   0  0  0  0  0  0  0  0  0  0  0  0
   -2.1932    3.5757    0.0000 C   0  0  0  0  0  0  0  0  0  0  0  0
   -2.1932    4.4007    0.0000 N   0  0  0  0  0  0  0  0  0  0  0  0
   -1.4787    4.8132    0.0000 C   0  0  0  0  0  0  0  0  0  0  0  0
   -1.4787    5.6382    0.0000 O   0  0  0  0  0  0  0  0  0  0  0  0
   -2.9077    3.1632    0.0000 O   0  0  0  0  0  0  0  0  0  0  0  0
   -1.4787    2.3382    0.0000 C   0  0  0  0  0  0  0  0  0  0  0  0
   -0.8113    1.8532    0.0000 C   0  0  0  0  0  0  0  0  0  0  0  0
   -1.0662    1.0686    0.0000 C   0  0  0  0  0  0  0  0  0  0  0  0
   -1.8912    1.0686    0.0000 C   0  0  0  0  0  0  0  0  0  0  0  0
   -2.1462    1.8532    0.0000 O   0  0  0  0  0  0  0  0  0  0  0  0
   -2.3762    0.4012    0.0000 C   0  0  0  0  0  0  0  0  0  0  0  0
   -3.1966    0.4874    0.0000 O   0  0  0  0  0  0  0  0  0  0  0  0
   -0.5813    0.4012    0.0000 N   0  0  0  0  0  0  0  0  0  0  0  0
    0.2392    0.4874    0.0000 N   0  0  0  0  0  0  0  0  0  0  0  0
    1.0596    0.5737    0.0000 N   0  0  0  0  0  0  0  0  0  0  0  0
  1  2  1  0
  2  3  2  0
  3  4  1  0
  4  5  1  0
  5  6  1  0
  6  7  1  0
  2  7  1  0
  7  8  2  0
  5  9  2  0
  4 10  1  0
 10 11  1  0
 11 12  1  0
 12 13  1  0
 13 14  1  0
 10 14  1  0
 13 15  1  0
 15 16  1  0
 17 12  1  0
 17 18  1  0
 18 19  3  0
M  CHG  2  17  -1  18   1
M  END
>  <name>  (137) 
Zidovudine

>  <logBB>  (137) 
-0.72

>  <logBB_class>  (137) 
0

>  <HAC>  (137) 
19

$$$$
MolID_335
     RDKit          2D

 14 15  0  0  0  0  0  0  0  0999 V2000
    0.7145    5.9411    0.0000 C   0  0  0  0  0  0  0  0  0  0  0  0
    1.4289    5.5286    0.0000 C   0  0  0  0  0  0  0  0  0  0  0  0
    1.4289    4.7036    0.0000 C   0  0  0  0  0  0  0  0  0  0  0  0
    0.7145    4.2911    0.0000 C   0  0  0  0  0  0  0  0  0  0  0  0
    0.0000    4.7036    0.0000 C   0  0  0  0  0  0  0  0  0  0  0  0
    0.0000    5.5286    0.0000 C   0  0  0  0  0  0  0  0  0  0  0  0
    0.7145    3.4661    0.0000 C   0  0  0  0  0  0  0  0  0  0  0  0
    1.3819    2.9812    0.0000 C   0  0  0  0  0  0  0  0  0  0  0  0
    1.1270    2.1965    0.0000 S   0  0  0  0  0  0  0  0  0  0  0  0
    0.3020    2.1965    0.0000 C   0  0  0  0  0  0  0  0  0  0  0  0
    0.0470    2.9812    0.0000 N   0  0  0  0  0  0  0  0  0  0  0  0
   -0.1830    1.5291    0.0000 C   0  0  0  0  0  0  0  0  0  0  0  0
   -1.0034    1.6153    0.0000 C   0  0  0  0  0  0  0  0  0  0  0  0
   -1.4884    0.9479    0.0000 N   0  0  0  0  0  0  0  0  0  0  0  0
  1  2  2  0
  2  3  1  0
  3  4  2  0
  4  5  1  0
  5  6  2  0
  1  6  1  0
  4  7  1  0
  7  8  2  0
  8  9  1  0
  9 10  1  0
 10 11  2  0
  7 11  1  0
 10 12  1  0
 12 13  1  0
 13 14  1  0
M  END
>  <name>  (138) 
ZINC04226975

>  <logBB>  (138) 
-0.87

>  <logBB_class>  (138) 
0

>  <HAC>  (138) 
14

$$$$
MolID_336
     RDKit          2D

 27 30  0  0  0  0  0  0  0  0999 V2000
   -0.4169   -4.6792    0.0000 C   0  0  0  0  0  0  0  0  0  0  0  0
   -0.4169   -3.8542    0.0000 C   0  0  0  0  0  0  0  0  0  0  0  0
    0.2975   -3.4417    0.0000 C   0  0  0  0  0  0  0  0  0  0  0  0
    1.0120   -3.8542    0.0000 N   0  0  0  0  0  0  0  0  0  0  0  0
    1.0120   -4.6792    0.0000 C   0  0  0  0  0  0  0  0  0  0  0  0
    0.2975   -5.0917    0.0000 C   0  0  0  0  0  0  0  0  0  0  0  0
    1.7265   -3.4417    0.0000 C   0  0  0  0  0  0  0  0  0  0  0  0
    2.4410   -3.8542    0.0000 C   0  0  0  0  0  0  0  0  0  0  0  0
    3.1554   -3.4417    0.0000 C   0  0  0  0  0  0  0  0  0  0  0  0
    3.8699   -3.8542    0.0000 C   0  0  0  0  0  0  0  0  0  0  0  0
    3.8699   -4.6792    0.0000 C   0  0  0  0  0  0  0  0  0  0  0  0
    3.1554   -5.0917    0.0000 C   0  0  0  0  0  0  0  0  0  0  0  0
    2.4410   -4.6792    0.0000 C   0  0  0  0  0  0  0  0  0  0  0  0
    4.5844   -3.4417    0.0000 O   0  0  0  0  0  0  0  0  0  0  0  0
    5.2988   -3.8542    0.0000 C   0  0  0  0  0  0  0  0  0  0  0  0
    6.0133   -3.4417    0.0000 C   0  0  0  0  0  0  0  0  0  0  0  0
    6.7278   -3.8542    0.0000 C   0  0  0  0  0  0  0  0  0  0  0  0
    7.4423   -3.4417    0.0000 N   0  0  0  0  0  0  0  0  0  0  0  0
    8.1567   -3.8542    0.0000 C   0  0  0  0  0  0  0  0  0  0  0  0
    8.9104   -3.5186    0.0000 N   0  0  0  0  0  0  0  0  0  0  0  0
    9.4624   -4.1317    0.0000 C   0  0  0  0  0  0  0  0  0  0  0  0
   10.2874   -4.1317    0.0000 C   0  0  0  0  0  0  0  0  0  0  0  0
   10.6999   -4.8462    0.0000 C   0  0  0  0  0  0  0  0  0  0  0  0
   10.2874   -5.5607    0.0000 C   0  0  0  0  0  0  0  0  0  0  0  0
    9.4624   -5.5607    0.0000 C   0  0  0  0  0  0  0  0  0  0  0  0
    9.0499   -4.8462    0.0000 C   0  0  0  0  0  0  0  0  0  0  0  0
    8.2430   -4.6747    0.0000 S   0  0  0  0  0  0  0  0  0  0  0  0
  1  2  1  0
  2  3  1  0
  3  4  1  0
  4  5  1  0
  5  6  1  0
  1  6  1  0
  4  7  1  0
  7  8  1  0
  8  9  2  0
  9 10  1  0
 10 11  2  0
 11 12  1  0
 12 13  2  0
  8 13  1  0
 10 14  1  0
 14 15  1  0
 15 16  1  0
 16 17  1  0
 17 18  1  0
 18 19  1  0
 19 20  2  0
 20 21  1  0
 21 22  2  0
 22 23  1  0
 23 24  2  0
 24 25  1  0
 25 26  2  0
 21 26  1  0
 26 27  1  0
 19 27  1  0
M  END
>  <name>  (139) 
zolantidine

>  <logBB>  (139) 
0.14

>  <logBB_class>  (139) 
1

>  <HAC>  (139) 
27

$$$$
MolID_337
     RDKit          2D

 23 25  0  0  0  0  0  0  0  0999 V2000
   -2.6687   -0.6800    0.0000 C   0  0  0  0  0  0  0  0  0  0  0  0
   -1.8437   -0.6800    0.0000 C   0  0  0  0  0  0  0  0  0  0  0  0
   -1.4312    0.0345    0.0000 C   0  0  0  0  0  0  0  0  0  0  0  0
   -0.6062    0.0345    0.0000 C   0  0  0  0  0  0  0  0  0  0  0  0
   -0.1937   -0.6800    0.0000 C   0  0  0  0  0  0  0  0  0  0  0  0
   -0.6062   -1.3945    0.0000 C   0  0  0  0  0  0  0  0  0  0  0  0
   -1.4312   -1.3945    0.0000 C   0  0  0  0  0  0  0  0  0  0  0  0
    0.6313   -0.6800    0.0000 C   0  0  0  0  0  0  0  0  0  0  0  0
    1.1162   -0.0125    0.0000 C   0  0  0  0  0  0  0  0  0  0  0  0
    1.9008   -0.2675    0.0000 N   0  0  0  0  0  0  0  0  0  0  0  0
    2.6153    0.1450    0.0000 C   0  0  0  0  0  0  0  0  0  0  0  0
    3.3298   -0.2675    0.0000 C   0  0  0  0  0  0  0  0  0  0  0  0
    3.3298   -1.0925    0.0000 C   0  0  0  0  0  0  0  0  0  0  0  0
    2.6153   -1.5050    0.0000 C   0  0  0  0  0  0  0  0  0  0  0  0
    1.9008   -1.0925    0.0000 C   0  0  0  0  0  0  0  0  0  0  0  0
    1.1162   -1.3474    0.0000 N   0  0  0  0  0  0  0  0  0  0  0  0
    4.0442    0.1450    0.0000 C   0  0  0  0  0  0  0  0  0  0  0  0
    0.8613    0.7721    0.0000 C   0  0  0  0  0  0  0  0  0  0  0  0
    1.4133    1.3852    0.0000 C   0  0  0  0  0  0  0  0  0  0  0  0
    2.2203    1.2136    0.0000 O   0  0  0  0  0  0  0  0  0  0  0  0
    1.1584    2.1698    0.0000 N   0  0  0  0  0  0  0  0  0  0  0  0
    0.3514    2.3413    0.0000 C   0  0  0  0  0  0  0  0  0  0  0  0
    1.7104    2.7829    0.0000 C   0  0  0  0  0  0  0  0  0  0  0  0
  1  2  1  0
  2  3  2  0
  3  4  1  0
  4  5  2  0
  5  6  1  0
  6  7  2  0
  2  7  1  0
  5  8  1  0
  8  9  2  0
  9 10  1  0
 10 11  1  0
 11 12  2  0
 12 13  1  0
 13 14  2  0
 14 15  1  0
 10 15  1  0
 15 16  2  0
  8 16  1  0
 12 17  1  0
  9 18  1  0
 18 19  1  0
 19 20  2  0
 19 21  1  0
 21 22  1  0
 21 23  1  0
M  END
>  <name>  (140) 
zolpidem

>  <logBB>  (140) 
-0.48

>  <logBB_class>  (140) 
0

>  <HAC>  (140) 
23

$$$$
MolID_25
     RDKit          2D

  7  6  0  0  0  0  0  0  0  0999 V2000
    0.5230    1.1270    0.0000 C   0  0  0  0  0  0  0  0  0  0  0  0
    1.2375    0.7145    0.0000 C   0  0  0  0  0  0  0  0  0  0  0  0
    1.9520    1.1270    0.0000 S   0  0  0  0  0  0  0  0  0  0  0  0
    2.6664    0.7145    0.0000 C   0  0  0  0  0  0  0  0  0  0  0  0
    3.3809    1.1270    0.0000 N   0  0  0  0  0  0  0  0  0  0  0  0
    2.6664   -0.1105    0.0000 N   0  0  0  0  0  0  0  0  0  0  0  0
   -0.1915    0.7145    0.0000 F   0  0  0  0  0  0  0  0  0  0  0  0
  1  2  1  0
  2  3  1  0
  3  4  1  0
  4  5  1  0
  4  6  2  0
  1  7  1  0
M  END
>  <name>  (141) 
2-(2-fluoro-ethyl)-isothiourea

>  <logBB>  (141) 
-0.27

>  <logBB_class>  (141) 
0

>  <HAC>  (141) 
7

$$$$
MolID_31
     RDKit          2D

  7  6  0  0  0  0  0  0  0  0999 V2000
   -0.1703    0.8526    0.0000 C   0  0  0  0  0  0  0  0  0  0  0  0
    0.5442    1.2651    0.0000 C   0  0  0  0  0  0  0  0  0  0  0  0
    1.2587    0.8526    0.0000 C   0  0  0  0  0  0  0  0  0  0  0  0
    1.9732    1.2651    0.0000 C   0  0  0  0  0  0  0  0  0  0  0  0
    1.9732    2.0901    0.0000 C   0  0  0  0  0  0  0  0  0  0  0  0
    2.6876    0.8526    0.0000 C   0  0  0  0  0  0  0  0  0  0  0  0
    3.4021    1.2651    0.0000 C   0  0  0  0  0  0  0  0  0  0  0  0
  1  2  1  0
  2  3  1  0
  3  4  1  0
  4  5  1  0
  4  6  1  0
  6  7  1  0
M  END
>  <name>  (142) 
2-methylheptane

>  <logBB>  (142) 
0.86

>  <logBB_class>  (142) 
1

>  <HAC>  (142) 
7

$$$$
MolID_39
     RDKit          2D

  7  6  0  0  0  0  0  0  0  0999 V2000
   -0.1914    0.7145    0.0000 C   0  0  0  0  0  0  0  0  0  0  0  0
    0.5230    1.1270    0.0000 C   0  0  0  0  0  0  0  0  0  0  0  0
    1.2375    0.7145    0.0000 C   0  0  0  0  0  3  0  0  0  0  0  0
    1.9520    1.1270    0.0000 C   0  0  0  0  0  3  0  0  0  0  0  0
    1.9520    1.9520    0.0000 C   0  0  0  0  0  3  0  0  0  0  0  0
    2.6664    0.7145    0.0000 C   0  0  0  0  0  0  0  0  0  0  0  0
    3.3809    1.1270    0.0000 C   0  0  0  0  0  0  0  0  0  0  0  0
  1  2  1  0
  2  3  1  0
  3  4  1  0
  4  5  1  0
  4  6  1  0
  6  7  1  0
M  RAD  3   3   2   4   2   5   2
M  END
>  <name>  (143) 
3-methylhexane

>  <logBB>  (143) 
0.9

>  <logBB_class>  (143) 
1

>  <HAC>  (143) 
7

$$$$
MolID_131
     RDKit          2D

  7  7  0  0  0  0  0  0  0  0999 V2000
    0.7827    2.1322    0.0000 C   0  0  0  0  0  0  0  0  0  0  0  0
    0.7827    1.3072    0.0000 C   0  0  0  0  0  0  0  0  0  0  0  0
    1.4971    0.8947    0.0000 C   0  0  0  0  0  0  0  0  0  0  0  0
    1.4971    0.0697    0.0000 C   0  0  0  0  0  0  0  0  0  0  0  0
    0.7827   -0.3428    0.0000 C   0  0  0  0  0  0  0  0  0  0  0  0
    0.0682    0.0697    0.0000 C   0  0  0  0  0  0  0  0  0  0  0  0
    0.0682    0.8947    0.0000 C   0  0  0  0  0  0  0  0  0  0  0  0
  1  2  1  0
  2  3  1  0
  3  4  1  0
  4  5  1  0
  5  6  1  0
  6  7  1  0
  2  7  1  0
M  END
>  <name>  (144) 
cyclohexylmethane

>  <logBB>  (144) 
0.96

>  <logBB_class>  (144) 
1

>  <HAC>  (144) 
7

$$$$
MolID_175
     RDKit          2D

  7  6  0  0  0  0  0  0  0  0999 V2000
    1.7605    1.8422    0.0000 C   0  0  0  0  0  0  0  0  0  0  0  0
    2.4750    1.4297    0.0000 C   0  0  0  0  0  0  0  0  0  0  0  0
    3.1895    1.8422    0.0000 C   0  0  0  0  0  0  0  0  0  0  0  0
    3.9039    1.4297    0.0000 C   0  0  0  0  0  0  0  0  0  0  0  0
    4.6184    1.8422    0.0000 C   0  0  0  0  0  0  0  0  0  0  0  0
    5.3329    1.4297    0.0000 C   0  0  0  0  0  0  0  0  0  0  0  0
    6.0474    1.8422    0.0000 C   0  0  0  0  0  0  0  0  0  0  0  0
  1  2  1  0
  2  3  1  0
  3  4  1  0
  4  5  1  0
  5  6  1  0
  6  7  1  0
M  END
>  <name>  (145) 
heptane

>  <logBB>  (145) 
0.76

>  <logBB_class>  (145) 
1

>  <HAC>  (145) 
7

$$$$
MolID_191
     RDKit          2D

  7  6  0  0  0  0  0  0  0  0999 V2000
    1.1106    2.1458    0.0000 C   0  0  0  0  0  0  0  0  0  0  0  0
    0.6981    1.4314    0.0000 C   0  0  0  0  0  0  0  0  0  0  0  0
   -0.1269    1.4314    0.0000 C   0  0  0  0  0  0  0  0  0  0  0  0
    1.1106    0.7169    0.0000 O   0  0  0  0  0  0  0  0  0  0  0  0
    0.6981    0.0024    0.0000 C   0  0  0  0  0  0  0  0  0  0  0  0
    1.1106   -0.7120    0.0000 O   0  0  0  0  0  0  0  0  0  0  0  0
   -0.1269    0.0024    0.0000 C   0  0  0  0  0  0  0  0  0  0  0  0
  1  2  1  0
  2  3  1  0
  2  4  1  0
  4  5  1  0
  5  6  2  0
  5  7  1  0
M  END
>  <name>  (146) 
isopropylacetate

>  <logBB>  (146) 
0.4

>  <logBB_class>  (146) 
1

>  <HAC>  (146) 
7

$$$$
MolID_211
     RDKit          2D

  8  7  0  0  0  0  0  0  0  0999 V2000
    0.8236   -0.8242    0.0000 C   0  0  0  0  0  0  0  0  0  0  0  0
    0.1091   -1.2367    0.0000 C   0  0  0  0  0  0  0  0  0  0  0  0
    0.1091   -2.0617    0.0000 Cl  0  0  0  0  0  0  0  0  0  0  0  0
   -0.6053   -0.8242    0.0000 Br  0  0  0  0  0  0  0  0  0  0  0  0
    0.8236    0.0008    0.0000 C   0  0  0  0  0  0  0  0  0  0  0  0
    0.8236    0.8258    0.0000 F   0  0  0  0  0  0  0  0  0  0  0  0
    1.6486    0.0008    0.0000 F   0  0  0  0  0  0  0  0  0  0  0  0
   -0.0014    0.0008    0.0000 F   0  0  0  0  0  0  0  0  0  0  0  0
  1  2  1  0
  2  3  1  0
  2  4  1  0
  1  5  1  0
  5  6  1  0
  5  7  1  0
  5  8  1  0
M  END
>  <name>  (147) 
MP001-772-915

>  <logBB>  (147) 
0.35

>  <logBB_class>  (147) 
1

>  <HAC>  (147) 
8

$$$$
MolID_22
     RDKit          2D

  8  7  0  0  0  0  0  0  0  0999 V2000
    1.0461    1.4282    0.0000 C   0  0  0  0  0  0  0  0  0  0  0  0
    1.7605    1.8407    0.0000 C   0  0  0  0  0  0  0  0  0  0  0  0
    2.4750    1.4282    0.0000 C   0  0  0  0  0  0  0  0  0  0  0  0
    3.1895    1.8407    0.0000 C   0  0  0  0  0  0  0  0  0  0  0  0
    3.9039    1.4282    0.0000 C   0  0  0  0  0  0  0  0  0  0  0  0
    4.6184    1.8407    0.0000 C   0  0  0  0  0  0  0  0  0  0  0  0
    5.3329    1.4282    0.0000 C   0  0  0  0  0  0  0  0  0  0  0  0
    6.0474    1.8407    0.0000 C   0  0  0  0  0  0  0  0  0  0  0  0
  1  2  1  0
  2  3  1  0
  3  4  1  0
  4  5  1  0
  5  6  1  0
  6  7  1  0
  7  8  2  0
M  END
>  <name>  (148) 
1-octene

>  <logBB>  (148) 
0.74

>  <logBB_class>  (148) 
1

>  <HAC>  (148) 
8

$$$$
MolID_30
     RDKit          2D

  8  7  0  0  0  0  0  0  0  0999 V2000
    1.6769    1.7861    0.0000 C   0  0  0  0  0  0  0  0  0  0  0  0
    2.3914    1.3736    0.0000 C   0  0  0  0  0  0  0  0  0  0  0  0
    2.3914    0.5486    0.0000 C   0  0  0  0  0  0  0  0  0  0  0  0
    3.1059    1.7861    0.0000 C   0  0  0  0  0  0  0  0  0  0  0  0
    3.8203    1.3736    0.0000 C   0  0  0  0  0  0  0  0  0  0  0  0
    4.5348    1.7861    0.0000 C   0  0  0  0  0  0  0  0  0  0  0  0
    5.2493    1.3736    0.0000 C   0  0  0  0  0  0  0  0  0  0  0  0
    5.9638    1.7861    0.0000 C   0  0  0  0  0  0  0  0  0  0  0  0
  1  2  1  0
  2  3  1  0
  2  4  1  0
  4  5  1  0
  5  6  1  0
  6  7  1  0
  7  8  1  0
M  END
>  <name>  (149) 
2-Methyloctane

>  <logBB>  (149) 
0.98

>  <logBB_class>  (149) 
1

>  <HAC>  (149) 
8

$$$$
MolID_94
     RDKit          2D

  8  7  0  0  0  0  0  0  0  0999 V2000
    1.7273    1.8070    0.0000 C   0  0  0  0  0  0  0  0  0  0  0  0
    2.4417    1.3945    0.0000 C   0  0  0  0  0  0  0  0  0  0  0  0
    3.1562    1.8070    0.0000 C   0  0  0  0  0  0  0  0  0  0  0  0
    3.8707    1.3945    0.0000 C   0  0  0  0  0  0  0  0  0  0  0  0
    4.5851    1.8070    0.0000 O   0  0  0  0  0  0  0  0  0  0  0  0
    5.2996    1.3945    0.0000 C   0  0  0  0  0  0  0  0  0  0  0  0
    6.0141    1.8070    0.0000 O   0  0  0  0  0  0  0  0  0  0  0  0
    5.2996    0.5695    0.0000 C   0  0  0  0  0  0  0  0  0  0  0  0
  1  2  1  0
  2  3  1  0
  3  4  1  0
  4  5  1  0
  5  6  1  0
  6  7  2  0
  6  8  1  0
M  END
>  <name>  (150) 
butylacetate

>  <logBB>  (150) 
0.28

>  <logBB_class>  (150) 
1

>  <HAC>  (150) 
8

$$$$
MolID_123
     RDKit          2D

  8  7  0  0  0  0  0  0  0  0999 V2000
    0.8236   -0.8242    0.0000 C   0  0  0  0  0  0  0  0  0  0  0  0
    0.1091   -1.2367    0.0000 C   0  0  0  0  0  0  0  0  0  0  0  0
    0.1091   -2.0617    0.0000 F   0  0  0  0  0  0  0  0  0  0  0  0
   -0.6053   -0.8242    0.0000 Br  0  0  0  0  0  0  0  0  0  0  0  0
    0.8236    0.0008    0.0000 C   0  0  0  0  0  0  0  0  0  0  0  0
    0.8236    0.8258    0.0000 F   0  0  0  0  0  0  0  0  0  0  0  0
    1.6486    0.0008    0.0000 F   0  0  0  0  0  0  0  0  0  0  0  0
   -0.0014    0.0008    0.0000 F   0  0  0  0  0  0  0  0  0  0  0  0
  1  2  1  0
  2  3  1  0
  2  4  1  0
  1  5  1  0
  5  6  1  0
  5  7  1  0
  5  8  1  0
M  END
>  <name>  (151) 
CID23235109

>  <logBB>  (151) 
0.27

>  <logBB_class>  (151) 
1

>  <HAC>  (151) 
8

$$$$
MolID_157
     RDKit          2D

  8  8  0  0  0  0  0  0  0  0999 V2000
   -0.0008    2.4745    0.0000 C   0  0  0  0  0  0  0  0  0  0  0  0
    0.7136    2.0620    0.0000 C   0  0  0  0  0  0  0  0  0  0  0  0
    0.7136    1.2370    0.0000 C   0  0  0  0  0  0  0  0  0  0  0  0
    1.4281    0.8245    0.0000 C   0  0  0  0  0  0  0  0  0  0  0  0
    1.4281   -0.0005    0.0000 C   0  0  0  0  0  0  0  0  0  0  0  0
    0.7136   -0.4130    0.0000 C   0  0  0  0  0  0  0  0  0  0  0  0
   -0.0008   -0.0005    0.0000 C   0  0  0  0  0  0  0  0  0  0  0  0
   -0.0008    0.8245    0.0000 C   0  0  0  0  0  0  0  0  0  0  0  0
  1  2  1  0
  2  3  1  0
  3  4  2  0
  4  5  1  0
  5  6  2  0
  6  7  1  0
  7  8  2  0
  3  8  1  0
M  END
>  <name>  (152) 
ethylbenzene

>  <logBB>  (152) 
0.22

>  <logBB_class>  (152) 
1

>  <HAC>  (152) 
8

$$$$
MolID_167
     RDKit          2D

  8  7  0  0  0  0  0  0  0  0999 V2000
   -0.6051   -2.4743    0.0000 C   0  0  0  0  0  0  0  0  0  0  0  0
    0.1094   -2.0618    0.0000 C   0  0  0  0  0  0  0  0  0  0  0  0
    0.1094   -1.2368    0.0000 O   0  0  0  0  0  0  0  0  0  0  0  0
    0.8238   -0.8243    0.0000 C   0  0  0  0  0  0  0  0  0  0  0  0
    0.8238    0.0007    0.0000 C   0  0  0  0  0  0  0  0  0  0  0  0
    0.8238    0.8257    0.0000 F   0  0  0  0  0  0  0  0  0  0  0  0
    1.6488    0.0007    0.0000 F   0  0  0  0  0  0  0  0  0  0  0  0
   -0.0012    0.0007    0.0000 F   0  0  0  0  0  0  0  0  0  0  0  0
  1  2  2  0
  2  3  1  0
  3  4  1  0
  4  5  1  0
  5  6  1  0
  5  7  1  0
  5  8  1  0
M  END
>  <name>  (153) 
fluoromar

>  <logBB>  (153) 
0.13

>  <logBB_class>  (153) 
1

>  <HAC>  (153) 
8

$$$$
MolID_176
     RDKit          2D

  8  8  0  0  0  0  0  0  0  0999 V2000
    0.8366    2.2372    0.0000 C   0  0  0  0  0  0  0  0  0  0  0  0
    0.8366    1.4122    0.0000 C   0  0  0  0  0  0  0  0  0  0  0  0
    1.5511    0.9997    0.0000 C   0  0  0  0  0  0  0  0  0  0  0  0
    1.5511    0.1747    0.0000 C   0  0  0  0  0  0  0  0  0  0  0  0
    0.8366   -0.2378    0.0000 C   0  0  0  0  0  0  0  0  0  0  0  0
    0.1221    0.1747    0.0000 C   0  0  0  0  0  0  0  0  0  0  0  0
    0.1221    0.9997    0.0000 C   0  0  0  0  0  0  0  0  0  0  0  0
   -0.5924    1.4122    0.0000 C   0  0  0  0  0  0  0  0  0  0  0  0
  1  2  1  0
  2  3  1  0
  3  4  1  0
  4  5  1  0
  5  6  1  0
  6  7  1  0
  2  7  1  0
  7  8  1  0
M  END
>  <name>  (154) 
hexahydro-o-xylene

>  <logBB>  (154) 
1.07

>  <logBB_class>  (154) 
1

>  <HAC>  (154) 
8

$$$$
MolID_186
     RDKit          2D

  8  7  0  0  0  0  0  0  0  0999 V2000
   -0.2560    0.6672    0.0000 C   0  0  0  0  0  0  0  0  0  0  0  0
    0.4585    1.0797    0.0000 C   0  0  0  0  0  0  0  0  0  0  0  0
    0.4585    1.9047    0.0000 C   0  0  0  0  0  0  0  0  0  0  0  0
    1.1729    0.6672    0.0000 C   0  0  0  0  0  0  0  0  0  0  0  0
    1.8874    1.0797    0.0000 O   0  0  0  0  0  0  0  0  0  0  0  0
    2.6019    0.6672    0.0000 C   0  0  0  0  0  0  0  0  0  0  0  0
    3.3163    1.0797    0.0000 O   0  0  0  0  0  0  0  0  0  0  0  0
    2.6019   -0.1578    0.0000 C   0  0  0  0  0  0  0  0  0  0  0  0
  1  2  1  0
  2  3  1  0
  2  4  1  0
  4  5  1  0
  5  6  1  0
  6  7  2  0
  6  8  1  0
M  END
>  <name>  (155) 
Isobutylacetate

>  <logBB>  (155) 
0.45

>  <logBB_class>  (155) 
1

>  <HAC>  (155) 
8

$$$$
MolID_21
     RDKit          2D

  9  8  0  0  0  0  0  0  0  0999 V2000
    2.9980    2.5559    0.0000 C   0  0  0  0  0  0  0  0  0  0  0  0
    3.7125    2.1434    0.0000 C   0  0  0  0  0  0  0  0  0  0  0  0
    4.4270    2.5559    0.0000 C   0  0  0  0  0  0  0  0  0  0  0  0
    5.1414    2.1434    0.0000 C   0  0  0  0  0  0  0  0  0  0  0  0
    5.8559    2.5559    0.0000 C   0  0  0  0  0  0  0  0  0  0  0  0
    6.5704    2.1434    0.0000 C   0  0  0  0  0  0  0  0  0  0  0  0
    7.2849    2.5559    0.0000 C   0  0  0  0  0  0  0  0  0  0  0  0
    7.9993    2.1434    0.0000 C   0  0  0  0  0  0  0  0  0  0  0  0
    8.7138    2.5559    0.0000 C   0  0  0  0  0  0  0  0  0  0  0  0
  1  2  1  0
  2  3  1  0
  3  4  1  0
  4  5  1  0
  5  6  1  0
  6  7  1  0
  7  8  1  0
  8  9  2  0
M  END
>  <name>  (156) 
1-Nonene

>  <logBB>  (156) 
0.86

>  <logBB_class>  (156) 
1

>  <HAC>  (156) 
9

$$$$
MolID_188
     RDKit          2D

  9  8  0  0  0  0  0  0  0  0999 V2000
    1.0127    1.4235    0.0000 C   0  0  0  0  0  0  0  0  0  0  0  0
    1.7272    1.8360    0.0000 C   0  0  0  0  0  0  0  0  0  0  0  0
    2.4417    1.4235    0.0000 C   0  0  0  0  0  0  0  0  0  0  0  0
    3.1561    1.8360    0.0000 C   0  0  0  0  0  0  0  0  0  0  0  0
    3.8706    1.4235    0.0000 C   0  0  0  0  0  0  0  0  0  0  0  0
    4.5851    1.8360    0.0000 C   0  0  0  0  0  0  0  0  0  0  0  0
    5.2995    1.4235    0.0000 C   0  0  0  0  0  0  0  0  0  0  0  0
    6.0140    1.8360    0.0000 C   0  0  0  0  0  0  0  0  0  0  0  0
    5.2995    0.5985    0.0000 C   0  0  0  0  0  0  0  0  0  0  0  0
  1  2  1  0
  2  3  1  0
  3  4  1  0
  4  5  1  0
  5  6  1  0
  6  7  1  0
  7  8  1  0
  7  9  1  0
M  END
>  <name>  (157) 
isononane

>  <logBB>  (157) 
0.98

>  <logBB_class>  (157) 
1

>  <HAC>  (157) 
9

$$$$
MolID_189
     RDKit          2D

  9  8  0  0  0  0  0  0  0  0999 V2000
    1.7082    1.8288    0.0000 C   0  0  0  0  0  0  0  0  0  0  0  0
    2.4227    1.4163    0.0000 C   0  0  0  0  0  0  0  0  0  0  0  0
    3.1372    1.8288    0.0000 O   0  0  0  0  0  0  0  0  0  0  0  0
    3.8517    1.4163    0.0000 C   0  0  0  0  0  0  0  0  0  0  0  0
    4.5661    1.8288    0.0000 C   0  0  0  0  0  0  0  0  0  0  0  0
    5.2806    1.4163    0.0000 C   0  0  0  0  0  0  0  0  0  0  0  0
    5.9951    1.8288    0.0000 C   0  0  0  0  0  0  0  0  0  0  0  0
    5.2806    0.5913    0.0000 C   0  0  0  0  0  0  0  0  0  0  0  0
    2.4227    0.5913    0.0000 O   0  0  0  0  0  0  0  0  0  0  0  0
  1  2  1  0
  2  3  1  0
  3  4  1  0
  4  5  1  0
  5  6  1  0
  6  7  1  0
  6  8  1  0
  2  9  2  0
M  END
>  <name>  (158) 
Isopentylacetate

>  <logBB>  (158) 
0.55

>  <logBB_class>  (158) 
1

>  <HAC>  (158) 
9

$$$$
MolID_151
     RDKit          2D

 10  9  0  0  0  0  0  0  0  0999 V2000
    0.8250    0.0000    0.0000 C   0  0  0  0  0  0  0  0  0  0  0  0
    1.2375    0.7145    0.0000 C   0  0  0  0  0  0  0  0  0  0  0  0
    1.6500    1.4289    0.0000 O   0  0  0  0  0  0  0  0  0  0  0  0
    1.2375    2.1434    0.0000 C   0  0  0  0  0  0  0  0  0  0  0  0
    1.6500    2.8579    0.0000 F   0  0  0  0  0  0  0  0  0  0  0  0
    0.4125    2.1434    0.0000 F   0  0  0  0  0  0  0  0  0  0  0  0
    0.5230    1.1270    0.0000 F   0  0  0  0  0  0  0  0  0  0  0  0
    1.9520    0.3020    0.0000 F   0  0  0  0  0  0  0  0  0  0  0  0
    1.2375   -0.7145    0.0000 F   0  0  0  0  0  0  0  0  0  0  0  0
    0.0000    0.0000    0.0000 Cl  0  0  0  0  0  0  0  0  0  0  0  0
  1  2  1  0
  2  3  1  0
  3  4  1  0
  4  5  1  0
  4  6  1  0
  2  7  1  0
  2  8  1  0
  1  9  1  0
  1 10  1  0
M  END
>  <name>  (159) 
enflurane

>  <logBB>  (159) 
0.22

>  <logBB_class>  (159) 
1

>  <HAC>  (159) 
10

$$$$
MolID_187
     RDKit          2D

 10  9  0  0  0  0  0  0  0  0999 V2000
    0.8250    0.0000    0.0000 C   0  0  0  0  0  0  0  0  0  0  0  0
    1.2375    0.7145    0.0000 C   0  0  0  0  0  0  0  0  0  0  0  0
    1.6500    1.4290    0.0000 F   0  0  0  0  0  0  0  0  0  0  0  0
    0.5230    1.1270    0.0000 F   0  0  0  0  0  0  0  0  0  0  0  0
    1.9520    0.3020    0.0000 F   0  0  0  0  0  0  0  0  0  0  0  0
    1.2375   -0.7144    0.0000 O   0  0  0  0  0  0  0  0  0  0  0  0
    0.8250   -1.4289    0.0000 C   0  0  0  0  0  0  0  0  0  0  0  0
    1.2375   -2.1434    0.0000 F   0  0  0  0  0  0  0  0  0  0  0  0
    0.0000   -1.4289    0.0000 F   0  0  0  0  0  0  0  0  0  0  0  0
    0.0000    0.0000    0.0000 Cl  0  0  0  0  0  0  0  0  0  0  0  0
  1  2  1  0
  2  3  1  0
  2  4  1  0
  2  5  1  0
  1  6  1  0
  6  7  1  0
  7  8  1  0
  7  9  1  0
  1 10  1  0
M  END
>  <name>  (160) 
isoflurane

>  <logBB>  (160) 
0.37

>  <logBB_class>  (160) 
1

>  <HAC>  (160) 
10

$$$$
MolID_14
     RDKit          2D

 10  9  0  0  0  0  0  0  0  0999 V2000
    2.2836    2.1434    0.0000 C   0  0  0  0  0  0  0  0  0  0  0  0
    2.9980    2.5559    0.0000 C   0  0  0  0  0  0  0  0  0  0  0  0
    3.7125    2.1434    0.0000 O   0  0  0  0  0  0  0  0  0  0  0  0
    4.4270    2.5559    0.0000 C   0  0  0  0  0  0  0  0  0  0  0  0
    5.1414    2.1434    0.0000 C   0  0  0  0  0  0  0  0  0  0  0  0
    5.8559    2.5559    0.0000 C   0  0  0  0  0  0  0  0  0  0  0  0
    6.5704    2.1434    0.0000 C   0  0  0  0  0  0  0  0  0  0  0  0
    7.2849    2.5559    0.0000 O   0  0  0  0  0  0  0  0  0  0  0  0
    7.9993    2.1434    0.0000 C   0  0  0  0  0  0  0  0  0  0  0  0
    8.7138    2.5559    0.0000 C   0  0  0  0  0  0  0  0  0  0  0  0
  1  2  2  0
  2  3  1  0
  3  4  1  0
  4  5  1  0
  5  6  1  0
  6  7  1  0
  7  8  1  0
  8  9  1  0
  9 10  2  0
M  END
>  <name>  (161) 
1,4-divinyloxybutane

>  <logBB>  (161) 
0.12

>  <logBB_class>  (161) 
1

>  <HAC>  (161) 
10

$$$$
MolID_18
     RDKit          2D

 10  9  0  0  0  0  0  0  0  0999 V2000
    2.2836    2.1428    0.0000 C   0  0  0  0  0  0  0  0  0  0  0  0
    2.9980    2.5553    0.0000 C   0  0  0  0  0  0  0  0  0  0  0  0
    3.7125    2.1428    0.0000 C   0  0  0  0  0  0  0  0  0  0  0  0
    4.4270    2.5553    0.0000 C   0  0  0  0  0  0  0  0  0  0  0  0
    5.1414    2.1428    0.0000 C   0  0  0  0  0  0  0  0  0  0  0  0
    5.8559    2.5553    0.0000 C   0  0  0  0  0  0  0  0  0  0  0  0
    6.5704    2.1428    0.0000 C   0  0  0  0  0  0  0  0  0  0  0  0
    7.2849    2.5553    0.0000 C   0  0  0  0  0  0  0  0  0  0  0  0
    7.9993    2.1428    0.0000 C   0  0  0  0  0  0  0  0  0  0  0  0
    8.7138    2.5553    0.0000 C   0  0  0  0  0  0  0  0  0  0  0  0
  1  2  1  0
  2  3  1  0
  3  4  1  0
  4  5  1  0
  5  6  1  0
  6  7  1  0
  7  8  1  0
  8  9  1  0
  9 10  2  0
M  END
>  <name>  (162) 
1-decene

>  <logBB>  (162) 
0.96

>  <logBB_class>  (162) 
1

>  <HAC>  (162) 
10

$$$$
MolID_32
     RDKit          2D

 10  9  0  0  0  0  0  0  0  0999 V2000
    2.9678    2.5514    0.0000 C   0  0  0  0  0  0  0  0  0  0  0  0
    3.6822    2.1389    0.0000 C   0  0  0  0  0  0  0  0  0  0  0  0
    4.3967    2.5514    0.0000 C   0  0  0  0  0  0  0  0  0  0  0  0
    5.1112    2.1389    0.0000 C   0  0  0  0  0  0  0  0  0  0  0  0
    5.8257    2.5514    0.0000 C   0  0  0  0  0  0  0  0  0  0  0  0
    6.5401    2.1389    0.0000 C   0  0  0  0  0  0  0  0  0  0  0  0
    7.2546    2.5514    0.0000 C   0  0  0  0  0  0  0  0  0  0  0  0
    7.9691    2.1389    0.0000 C   0  0  0  0  0  0  0  0  0  0  0  0
    8.6835    2.5514    0.0000 C   0  0  0  0  0  0  0  0  0  0  0  0
    7.9691    1.3139    0.0000 C   0  0  0  0  0  0  0  0  0  0  0  0
  1  2  1  0
  2  3  1  0
  3  4  1  0
  4  5  1  0
  5  6  1  0
  6  7  1  0
  7  8  1  0
  8  9  1  0
  8 10  1  0
M  END
>  <name>  (163) 
2-methylnonane

>  <logBB>  (163) 
1.05

>  <logBB_class>  (163) 
1

>  <HAC>  (163) 
10

$$$$
MolID_66
     RDKit          2D

 10 10  0  0  0  0  0  0  0  0999 V2000
   -0.0434    3.3574    0.0000 C   0  0  0  0  0  0  0  0  0  0  0  0
   -0.0434    2.5324    0.0000 C   0  0  0  0  0  0  0  0  0  0  0  0
    0.6711    2.1199    0.0000 C   0  0  0  0  0  0  0  0  0  0  0  0
    0.6711    1.2949    0.0000 C   0  0  0  0  0  0  0  0  0  0  0  0
    1.3855    0.8824    0.0000 C   0  0  0  0  0  0  0  0  0  0  0  0
    1.3855    0.0574    0.0000 C   0  0  0  0  0  0  0  0  0  0  0  0
    0.6711   -0.3551    0.0000 C   0  0  0  0  0  0  0  0  0  0  0  0
   -0.0434    0.0574    0.0000 C   0  0  0  0  0  0  0  0  0  0  0  0
   -0.0434    0.8824    0.0000 C   0  0  0  0  0  0  0  0  0  0  0  0
   -0.7579    2.1199    0.0000 N   0  0  0  0  0  0  0  0  0  0  0  0
  1  2  1  0
  2  3  1  0
  3  4  1  0
  4  5  2  0
  5  6  1  0
  6  7  2  0
  7  8  1  0
  8  9  2  0
  4  9  1  0
  2 10  1  0
M  END
>  <name>  (164) 
amphetamine

>  <logBB>  (164) 
0.93

>  <logBB_class>  (164) 
1

>  <HAC>  (164) 
10

$$$$
MolID_81
     RDKit          2D

 10 10  0  0  0  0  0  0  0  0999 V2000
   -0.7145    3.7125    0.0000 C   0  0  0  0  0  0  0  0  0  0  0  0
    0.0000    3.3000    0.0000 N   0  0  0  0  0  0  0  0  0  0  0  0
    0.0000    2.4750    0.0000 C   0  0  0  0  0  0  0  0  0  0  0  0
    0.7145    2.0625    0.0000 C   0  0  0  0  0  0  0  0  0  0  0  0
    0.7145    1.2375    0.0000 C   0  0  0  0  0  0  0  0  0  0  0  0
    1.4289    0.8250    0.0000 C   0  0  0  0  0  0  0  0  0  0  0  0
    1.4289    0.0000    0.0000 C   0  0  0  0  0  0  0  0  0  0  0  0
    0.7145   -0.4125    0.0000 C   0  0  0  0  0  0  0  0  0  0  0  0
    0.0000    0.0000    0.0000 C   0  0  0  0  0  0  0  0  0  0  0  0
    0.0000    0.8250    0.0000 N   0  0  0  0  0  0  0  0  0  0  0  0
  1  2  1  0
  2  3  1  0
  3  4  1  0
  4  5  1  0
  5  6  2  0
  6  7  1  0
  7  8  2  0
  8  9  1  0
  9 10  2  0
  5 10  1  0
M  END
>  <name>  (165) 
betahistine

>  <logBB>  (165) 
-0.34

>  <logBB_class>  (165) 
0

>  <HAC>  (165) 
10

$$$$
MolID_99
     RDKit          2D

 10 10  0  0  0  0  0  0  0  0999 V2000
    0.6800    2.0403    0.0000 C   0  0  0  0  0  0  0  0  0  0  0  0
    0.6800    1.2153    0.0000 C   0  0  0  0  0  0  0  0  0  0  0  0
    1.3474    0.7304    0.0000 C   0  0  0  0  0  0  0  0  0  0  0  0
    1.0925   -0.0542    0.0000 S   0  0  0  0  0  0  0  0  0  0  0  0
    0.2675   -0.0542    0.0000 C   0  0  0  0  0  0  0  0  0  0  0  0
    0.0126    0.7304    0.0000 N   0  0  0  0  0  0  0  0  0  0  0  0
   -0.2174   -0.7217    0.0000 N   0  0  0  0  0  0  0  0  0  0  0  0
   -1.0379   -0.6354    0.0000 C   0  0  0  0  0  0  0  0  0  0  0  0
   -1.5228   -1.3029    0.0000 N   0  0  0  0  0  0  0  0  0  0  0  0
   -1.3735    0.1182    0.0000 N   0  0  0  0  0  0  0  0  0  0  0  0
  1  2  1  0
  2  3  2  0
  3  4  1  0
  4  5  1  0
  5  6  2  0
  2  6  1  0
  7  5  1  0
  7  8  1  0
  8  9  2  0
  8 10  1  0
M  END
>  <name>  (166) 
CDS1000170

>  <logBB>  (166) 
-0.04

>  <logBB_class>  (166) 
0

>  <HAC>  (166) 
10

$$$$
MolID_135
     RDKit          2D

 10  9  0  0  0  0  0  0  0  0999 V2000
    2.2836    2.1434    0.0000 C   0  0  0  0  0  0  0  0  0  0  0  0
    2.9980    2.5559    0.0000 C   0  0  0  0  0  0  0  0  0  0  0  0
    3.7125    2.1434    0.0000 C   0  0  0  0  0  0  0  0  0  0  0  0
    4.4270    2.5559    0.0000 C   0  0  0  0  0  0  0  0  0  0  0  0
    5.1414    2.1434    0.0000 C   0  0  0  0  0  0  0  0  0  0  0  0
    5.8559    2.5559    0.0000 C   0  0  0  0  0  0  0  0  0  0  0  0
    6.5704    2.1434    0.0000 C   0  0  0  0  0  0  0  0  0  0  0  0
    7.2849    2.5559    0.0000 C   0  0  0  0  0  0  0  0  0  0  0  0
    7.9993    2.1434    0.0000 C   0  0  0  0  0  0  0  0  0  0  0  0
    8.7138    2.5559    0.0000 C   0  0  0  0  0  0  0  0  0  0  0  0
  1  2  1  0
  2  3  1  0
  3  4  1  0
  4  5  1  0
  5  6  1  0
  6  7  1  0
  7  8  1  0
  8  9  1  0
  9 10  1  0
M  END
>  <name>  (167) 
decane

>  <logBB>  (167) 
0.67

>  <logBB_class>  (167) 
1

>  <HAC>  (167) 
10

$$$$
MolID_192
     RDKit          2D

 10 11  0  0  0  0  0  0  0  0999 V2000
    0.7159   -0.4133    0.0000 C   0  0  0  0  0  0  0  0  0  0  0  0
    1.4304   -0.0008    0.0000 C   0  0  0  0  0  0  0  0  0  0  0  0
    2.1449   -0.4133    0.0000 C   0  0  0  0  0  0  0  0  0  0  0  0
    2.8593   -0.0008    0.0000 C   0  0  0  0  0  0  0  0  0  0  0  0
    3.5738   -0.4133    0.0000 C   0  0  0  0  0  0  0  0  0  0  0  0
    3.5738   -1.2383    0.0000 C   0  0  0  0  0  0  0  0  0  0  0  0
    2.8593   -1.6508    0.0000 C   0  0  0  0  0  0  0  0  0  0  0  0
    2.1449   -1.2383    0.0000 C   0  0  0  0  0  0  0  0  0  0  0  0
    1.4304   -1.6508    0.0000 N   0  0  0  0  0  0  0  0  0  0  0  0
    0.7159   -1.2383    0.0000 C   0  0  0  0  0  0  0  0  0  0  0  0
  1  2  1  0
  2  3  1  0
  3  4  2  0
  4  5  1  0
  5  6  2  0
  6  7  1  0
  7  8  2  0
  3  8  1  0
  8  9  1  0
  9 10  1  0
  1 10  1  0
M  END
>  <name>  (168) 
kusol

>  <logBB>  (168) 
0.67

>  <logBB_class>  (168) 
1

>  <HAC>  (168) 
10

$$$$
MolID_42
     RDKit          2D

 11 11  0  0  0  0  0  0  0  0999 V2000
    0.7144    1.2375    0.0000 C   0  0  0  0  0  0  0  0  0  0  0  0
    1.4289    0.8250    0.0000 C   0  0  0  0  0  0  0  0  0  0  0  0
    1.4289    0.0000    0.0000 C   0  0  0  0  0  0  0  0  0  0  0  0
    0.7144   -0.4125    0.0000 C   0  0  0  0  0  0  0  0  0  0  0  0
    0.0000    0.0000    0.0000 C   0  0  0  0  0  0  0  0  0  0  0  0
    0.0000    0.8250    0.0000 C   0  0  0  0  0  0  0  0  0  0  0  0
   -0.7145    1.2375    0.0000 C   0  0  0  0  0  0  0  0  0  0  0  0
   -1.4290    1.6500    0.0000 F   0  0  0  0  0  0  0  0  0  0  0  0
   -1.1270    0.5230    0.0000 F   0  0  0  0  0  0  0  0  0  0  0  0
   -0.3020    1.9520    0.0000 F   0  0  0  0  0  0  0  0  0  0  0  0
    2.1434   -0.4125    0.0000 Cl  0  0  0  0  0  0  0  0  0  0  0  0
  1  2  2  0
  2  3  1  0
  3  4  2  0
  4  5  1  0
  5  6  2  0
  1  6  1  0
  6  7  1  0
  7  8  1  0
  7  9  1  0
  7 10  1  0
  3 11  1  0
M  END
>  <name>  (169) 
4-chlorobenzotrifluoride

>  <logBB>  (169) 
0.17

>  <logBB_class>  (169) 
1

>  <HAC>  (169) 
11

$$$$
MolID_172
     RDKit          2D

 11 11  0  0  0  0  0  0  0  0999 V2000
    0.7145    1.2375    0.0000 C   0  0  0  0  0  0  0  0  0  0  0  0
    1.4289    0.8250    0.0000 C   0  0  0  0  0  0  0  0  0  0  0  0
    1.4289    0.0000    0.0000 C   0  0  0  0  0  0  0  0  0  0  0  0
    0.7145   -0.4125    0.0000 C   0  0  0  0  0  0  0  0  0  0  0  0
    0.0000    0.0000    0.0000 C   0  0  0  0  0  0  0  0  0  0  0  0
    0.0000    0.8250    0.0000 C   0  0  0  0  0  0  0  0  0  0  0  0
   -0.7145    1.2375    0.0000 O   0  0  0  0  0  0  0  0  0  0  0  0
    0.7145   -1.2375    0.0000 C   0  0  0  0  0  0  0  0  0  0  0  0
    1.4289   -1.6500    0.0000 O   0  0  0  0  0  0  0  0  0  0  0  0
    0.0000   -1.6500    0.0000 O   0  0  0  0  0  0  0  0  0  0  0  0
    2.1434   -0.4125    0.0000 O   0  0  0  0  0  0  0  0  0  0  0  0
  1  2  2  0
  2  3  1  0
  3  4  2  0
  4  5  1  0
  5  6  2  0
  1  6  1  0
  6  7  1  0
  4  8  1  0
  8  9  2  0
  8 10  1  0
  3 11  1  0
M  END
>  <name>  (170) 
gentisicacid

>  <logBB>  (170) 
0.09

>  <logBB_class>  (170) 
1

>  <HAC>  (170) 
11

$$$$
MolID_97
     RDKit          2D

 12 11  0  0  0  0  0  0  0  0999 V2000
    4.4270    2.5559    0.0000 C   0  0  0  0  0  0  0  0  0  0  0  0
    3.7125    2.1434    0.0000 C   0  0  0  0  0  0  0  0  0  0  0  0
    2.9980    2.5559    0.0000 Cl  0  0  0  0  0  0  0  0  0  0  0  0
    5.1414    2.1434    0.0000 N   0  0  0  0  0  0  0  0  0  0  0  0
    5.8559    2.5559    0.0000 C   0  0  0  0  0  0  0  0  0  0  0  0
    5.8559    3.3809    0.0000 O   0  0  0  0  0  0  0  0  0  0  0  0
    6.5704    2.1434    0.0000 N   0  0  0  0  0  0  0  0  0  0  0  0
    7.2849    2.5559    0.0000 C   0  0  0  0  0  0  0  0  0  0  0  0
    7.9993    2.1434    0.0000 C   0  0  0  0  0  0  0  0  0  0  0  0
    8.7138    2.5559    0.0000 Cl  0  0  0  0  0  0  0  0  0  0  0  0
    6.5704    1.3184    0.0000 N   0  0  0  0  0  0  0  0  0  0  0  0
    7.2849    0.9059    0.0000 O   0  0  0  0  0  0  0  0  0  0  0  0
  1  2  1  0
  2  3  1  0
  1  4  1  0
  4  5  1  0
  5  6  2  0
  5  7  1  0
  7  8  1  0
  8  9  1  0
  9 10  1  0
  7 11  1  0
 11 12  2  0
M  END
>  <name>  (171) 
carmustine

>  <logBB>  (171) 
-0.52

>  <logBB_class>  (171) 
0

>  <HAC>  (171) 
12

$$$$
MolID_10
     RDKit          2D

 12 13  0  0  0  0  0  0  0  0999 V2000
   -1.4087   -1.4124    0.0000 N   0  0  0  0  0  0  0  0  0  0  0  0
   -0.5837   -1.4124    0.0000 C   0  0  0  0  0  0  0  0  0  0  0  0
   -0.1712   -0.6979    0.0000 C   0  0  0  0  0  0  0  0  0  0  0  0
    0.6538   -0.6979    0.0000 C   0  0  0  0  0  0  0  0  0  0  0  0
    1.1387   -0.0305    0.0000 C   0  0  0  0  0  0  0  0  0  0  0  0
    1.9233   -0.2854    0.0000 N   0  0  0  0  0  0  0  0  0  0  0  0
    2.6378    0.1271    0.0000 C   0  0  0  0  0  0  0  0  0  0  0  0
    3.3523   -0.2854    0.0000 C   0  0  0  0  0  0  0  0  0  0  0  0
    3.3523   -1.1104    0.0000 C   0  0  0  0  0  0  0  0  0  0  0  0
    2.6378   -1.5229    0.0000 C   0  0  0  0  0  0  0  0  0  0  0  0
    1.9233   -1.1104    0.0000 C   0  0  0  0  0  0  0  0  0  0  0  0
    1.1387   -1.3654    0.0000 N   0  0  0  0  0  0  0  0  0  0  0  0
  1  2  1  0
  2  3  1  0
  3  4  1  0
  4  5  2  0
  5  6  1  0
  6  7  1  0
  7  8  2  0
  8  9  1  0
  9 10  2  0
 10 11  1  0
  6 11  1  0
 11 12  2  0
  4 12  1  0
M  END
>  <name>  (172) 
62

>  <logBB>  (172) 
-1.4

>  <logBB_class>  (172) 
0

>  <HAC>  (172) 
12

$$$$
MolID_79
     RDKit          2D

 12 12  0  0  0  0  0  0  0  0999 V2000
   -0.7151    3.7121    0.0000 C   0  0  0  0  0  0  0  0  0  0  0  0
   -0.0006    3.2996    0.0000 C   0  0  0  0  0  0  0  0  0  0  0  0
   -0.0006    2.4746    0.0000 O   0  0  0  0  0  0  0  0  0  0  0  0
    0.7138    2.0621    0.0000 C   0  0  0  0  0  0  0  0  0  0  0  0
    1.4283    2.4746    0.0000 O   0  0  0  0  0  0  0  0  0  0  0  0
    0.7138    1.2371    0.0000 C   0  0  0  0  0  0  0  0  0  0  0  0
    1.4283    0.8246    0.0000 C   0  0  0  0  0  0  0  0  0  0  0  0
    1.4283   -0.0004    0.0000 C   0  0  0  0  0  0  0  0  0  0  0  0
    0.7138   -0.4129    0.0000 C   0  0  0  0  0  0  0  0  0  0  0  0
   -0.0006   -0.0004    0.0000 C   0  0  0  0  0  0  0  0  0  0  0  0
   -0.0006    0.8246    0.0000 C   0  0  0  0  0  0  0  0  0  0  0  0
    0.7138   -1.2379    0.0000 N   0  0  0  0  0  0  0  0  0  0  0  0
  1  2  1  0
  2  3  1  0
  3  4  1  0
  4  5  2  0
  4  6  1  0
  6  7  2  0
  7  8  1  0
  8  9  2  0
  9 10  1  0
 10 11  2  0
  6 11  1  0
  9 12  1  0
M  END
>  <name>  (173) 
benzocaine

>  <logBB>  (173) 
0.27

>  <logBB_class>  (173) 
1

>  <HAC>  (173) 
12

$$$$
MolID_154
     RDKit          2D

 12 12  0  0  0  0  0  0  0  0999 V2000
   -0.0549    3.2325    0.0000 C   0  0  0  0  0  0  0  0  0  0  0  0
   -0.0549    2.4075    0.0000 C   0  0  0  0  0  0  0  0  0  0  0  0
    0.6596    1.9950    0.0000 O   0  0  0  0  0  0  0  0  0  0  0  0
    0.6596    1.1700    0.0000 C   0  0  0  0  0  0  0  0  0  0  0  0
    1.3741    0.7575    0.0000 C   0  0  0  0  0  0  0  0  0  0  0  0
    1.3741   -0.0675    0.0000 C   0  0  0  0  0  0  0  0  0  0  0  0
    0.6596   -0.4800    0.0000 C   0  0  0  0  0  0  0  0  0  0  0  0
   -0.0549   -0.0675    0.0000 C   0  0  0  0  0  0  0  0  0  0  0  0
   -0.0549    0.7575    0.0000 C   0  0  0  0  0  0  0  0  0  0  0  0
   -0.7693    1.1700    0.0000 C   0  0  0  0  0  0  0  0  0  0  0  0
   -0.7693    1.9950    0.0000 O   0  0  0  0  0  0  0  0  0  0  0  0
   -1.4838    0.7575    0.0000 N   0  0  0  0  0  0  0  0  0  0  0  0
  1  2  1  0
  2  3  1  0
  3  4  1  0
  4  5  2  0
  5  6  1  0
  6  7  2  0
  7  8  1  0
  8  9  2  0
  4  9  1  0
  9 10  1  0
 10 11  2  0
 10 12  1  0
M  END
>  <name>  (174) 
ethenzamide

>  <logBB>  (174) 
-0.05

>  <logBB_class>  (174) 
0

>  <HAC>  (174) 
12

$$$$
MolID_58
     RDKit          2D

 13 14  0  0  0  0  0  0  0  0999 V2000
    3.6970    0.5046    0.0000 C   0  0  0  0  0  0  0  0  0  0  0  0
    2.8720    0.5046    0.0000 C   0  0  0  0  0  0  0  0  0  0  0  0
    2.4595   -0.2098    0.0000 C   0  0  0  0  0  0  0  0  0  0  0  0
    2.8720   -0.9243    0.0000 O   0  0  0  0  0  0  0  0  0  0  0  0
    1.6345   -0.2098    0.0000 N   0  0  0  0  0  0  0  0  0  0  0  0
    1.2220    0.5046    0.0000 C   0  0  0  0  0  0  0  0  0  0  0  0
    0.7371   -0.1628    0.0000 C   0  0  0  0  0  0  0  0  0  0  0  0
   -0.0475    0.0921    0.0000 C   0  0  0  0  0  0  0  0  0  0  0  0
   -0.0475    0.9171    0.0000 C   0  0  0  0  0  0  0  0  0  0  0  0
    0.7371    1.1721    0.0000 C   0  0  0  0  0  0  0  0  0  0  0  0
    1.6345    1.2191    0.0000 C   0  0  0  0  0  0  0  0  0  0  0  0
    1.2220    1.9336    0.0000 O   0  0  0  0  0  0  0  0  0  0  0  0
    2.4595    1.2191    0.0000 N   0  0  0  0  0  0  0  0  0  0  0  0
  1  2  1  0
  2  3  1  0
  3  4  2  0
  3  5  1  0
  5  6  1  0
  6  7  1  0
  7  8  1  0
  8  9  1  0
  9 10  1  0
  6 10  1  0
  6 11  1  0
 11 12  2  0
 11 13  1  0
  2 13  1  0
M  END
>  <name>  (175) 
alaptide

>  <logBB>  (175) 
-0.26

>  <logBB_class>  (175) 
0

>  <HAC>  (175) 
13

$$$$
MolID_71
     RDKit          2D

 13 13  0  0  0  0  0  0  0  0999 V2000
    1.4289    3.3000    0.0000 C   0  0  0  0  0  0  0  0  0  0  0  0
    1.4289    2.4750    0.0000 C   0  0  0  0  0  0  0  0  0  0  0  0
    2.1434    2.0625    0.0000 O   0  0  0  0  0  0  0  0  0  0  0  0
    0.7144    2.0625    0.0000 O   0  0  0  0  0  0  0  0  0  0  0  0
    0.7144    1.2375    0.0000 C   0  0  0  0  0  0  0  0  0  0  0  0
    1.4289    0.8250    0.0000 C   0  0  0  0  0  0  0  0  0  0  0  0
    1.4289    0.0000    0.0000 C   0  0  0  0  0  0  0  0  0  0  0  0
    0.7144   -0.4125    0.0000 C   0  0  0  0  0  0  0  0  0  0  0  0
    0.0000    0.0000    0.0000 C   0  0  0  0  0  0  0  0  0  0  0  0
    0.0000    0.8250    0.0000 C   0  0  0  0  0  0  0  0  0  0  0  0
   -0.7145    1.2375    0.0000 C   0  0  0  0  0  0  0  0  0  0  0  0
   -0.7145    2.0625    0.0000 O   0  0  0  0  0  0  0  0  0  0  0  0
   -1.4290    0.8250    0.0000 O   0  0  0  0  0  0  0  0  0  0  0  0
  1  2  1  0
  2  3  2  0
  2  4  1  0
  4  5  1  0
  5  6  2  0
  6  7  1  0
  7  8  2  0
  8  9  1  0
  9 10  2  0
  5 10  1  0
 10 11  1  0
 11 12  1  0
 11 13  2  0
M  END
>  <name>  (176) 
aspirin

>  <logBB>  (176) 
-0.61

>  <logBB_class>  (176) 
0

>  <HAC>  (176) 
13

$$$$
MolID_73
     RDKit          2D

 13 13  0  0  0  0  0  0  0  0999 V2000
   -0.2491    1.6915    0.0000 C   0  0  0  0  0  0  0  0  0  0  0  0
    0.5634    1.8347    0.0000 C   0  0  0  0  0  0  0  0  0  0  0  0
    1.0937    1.2027    0.0000 C   0  0  0  0  0  0  0  0  0  0  0  0
    1.8082    0.7902    0.0000 C   0  0  0  0  0  0  0  0  0  0  0  0
    2.5226    1.2027    0.0000 O   0  0  0  0  0  0  0  0  0  0  0  0
    1.8082   -0.0348    0.0000 N   0  0  0  0  0  0  0  0  0  0  0  0
    1.0937   -0.4473    0.0000 C   0  0  0  0  0  0  0  0  0  0  0  0
    1.0937   -1.2723    0.0000 O   0  0  0  0  0  0  0  0  0  0  0  0
    0.3792   -0.0348    0.0000 N   0  0  0  0  0  0  0  0  0  0  0  0
    0.3792    0.7902    0.0000 C   0  0  0  0  0  0  0  0  0  0  0  0
   -0.3352    1.2027    0.0000 O   0  0  0  0  0  0  0  0  0  0  0  0
    1.6240    1.8347    0.0000 C   0  0  0  0  0  0  0  0  0  0  0  0
    1.3418    2.6100    0.0000 C   0  0  0  0  0  0  0  0  0  0  0  0
  1  2  1  0
  2  3  1  0
  3  4  1  0
  4  5  2  0
  4  6  1  0
  6  7  1  0
  7  8  2  0
  7  9  1  0
  9 10  1  0
  3 10  1  0
 10 11  2  0
  3 12  1  0
 12 13  1  0
M  END
>  <name>  (177) 
barbital

>  <logBB>  (177) 
-0.14

>  <logBB_class>  (177) 
0

>  <HAC>  (177) 
13

$$$$
MolID_129
     RDKit          2D

 13 14  0  0  0  0  0  0  0  0999 V2000
    1.4344   -3.0237    0.0000 C   0  0  0  0  0  0  0  0  0  0  0  0
    0.9495   -2.3563    0.0000 N   0  0  0  0  0  0  0  0  0  0  0  0
    0.1245   -2.3563    0.0000 C   0  0  0  0  0  0  0  0  0  0  0  0
   -0.1304   -1.5717    0.0000 C   0  0  0  0  0  0  0  0  0  0  0  0
    0.5370   -1.0867    0.0000 C   0  0  0  0  0  0  0  0  0  0  0  0
    1.2044   -1.5717    0.0000 C   0  0  0  0  0  0  0  0  0  0  0  0
    1.9891   -1.3167    0.0000 O   0  0  0  0  0  0  0  0  0  0  0  0
   -0.3604   -3.0237    0.0000 C   0  0  0  0  0  0  0  0  0  0  0  0
   -0.0249   -3.7774    0.0000 C   0  0  0  0  0  0  0  0  0  0  0  0
   -0.5098   -4.4448    0.0000 N   0  0  0  0  0  0  0  0  0  0  0  0
   -1.3303   -4.3586    0.0000 C   0  0  0  0  0  0  0  0  0  0  0  0
   -1.6658   -3.6049    0.0000 C   0  0  0  0  0  0  0  0  0  0  0  0
   -1.1809   -2.9375    0.0000 C   0  0  0  0  0  0  0  0  0  0  0  0
  1  2  1  0
  2  3  1  0
  3  4  1  0
  4  5  1  0
  5  6  1  0
  2  6  1  0
  6  7  2  0
  3  8  1  0
  8  9  2  0
  9 10  1  0
 10 11  2  0
 11 12  1  0
 12 13  2  0
  8 13  1  0
M  END
>  <name>  (178) 
cotinine

>  <logBB>  (178) 
-0.22

>  <logBB_class>  (178) 
0

>  <HAC>  (178) 
13

$$$$
MolID_37
     RDKit          2D

 14 14  0  0  0  0  0  0  0  0999 V2000
   -0.6641    2.8761    0.0000 C   0  0  0  0  0  0  0  0  0  0  0  0
   -0.2516    2.1616    0.0000 C   0  0  0  0  0  0  0  0  0  0  0  0
    0.5734    2.1616    0.0000 C   0  0  0  0  0  0  0  0  0  0  0  0
    1.3984    2.1616    0.0000 C   0  0  0  0  0  0  0  0  0  0  0  0
    1.8109    2.8761    0.0000 C   0  0  0  0  0  0  0  0  0  0  0  0
    2.6359    2.8761    0.0000 O   0  0  0  0  0  0  0  0  0  0  0  0
    1.3984    3.5905    0.0000 N   0  0  0  0  0  0  0  0  0  0  0  0
    0.5734    1.3366    0.0000 C   0  0  0  0  0  0  0  0  0  0  0  0
    1.2879    0.9241    0.0000 C   0  0  0  0  0  0  0  0  0  0  0  0
    1.2879    0.0991    0.0000 C   0  0  0  0  0  0  0  0  0  0  0  0
    0.5734   -0.3134    0.0000 C   0  0  0  0  0  0  0  0  0  0  0  0
   -0.1411    0.0991    0.0000 C   0  0  0  0  0  0  0  0  0  0  0  0
   -0.1411    0.9241    0.0000 C   0  0  0  0  0  0  0  0  0  0  0  0
    0.5734    2.9866    0.0000 O   0  0  0  0  0  0  0  0  0  0  0  0
  1  2  1  0
  2  3  1  0
  3  4  1  0
  4  5  1  0
  5  6  2  0
  5  7  1  0
  3  8  1  0
  8  9  2  0
  9 10  1  0
 10 11  2  0
 11 12  1  0
 12 13  2  0
  8 13  1  0
  3 14  1  0
M  END
>  <name>  (179) 
3-hydroxy-3-phenylpentamide

>  <logBB>  (179) 
0.04

>  <logBB_class>  (179) 
1

>  <HAC>  (179) 
14

$$$$
MolID_49
     RDKit          2D

 14 14  0  0  0  0  0  0  0  0999 V2000
    1.5814    3.2431    0.0000 C   0  0  0  0  0  0  0  0  0  0  0  0
    1.0511    2.6111    0.0000 C   0  0  0  0  0  0  0  0  0  0  0  0
    1.3332    1.8358    0.0000 C   0  0  0  0  0  0  0  0  0  0  0  0
    0.8029    1.2039    0.0000 C   0  0  0  0  0  0  0  0  0  0  0  0
    1.5174    0.7914    0.0000 C   0  0  0  0  0  0  0  0  0  0  0  0
    2.2319    1.2039    0.0000 O   0  0  0  0  0  0  0  0  0  0  0  0
    1.5174   -0.0336    0.0000 N   0  0  0  0  0  0  0  0  0  0  0  0
    0.8029   -0.4461    0.0000 C   0  0  0  0  0  0  0  0  0  0  0  0
    0.8029   -1.2711    0.0000 O   0  0  0  0  0  0  0  0  0  0  0  0
    0.0885   -0.0336    0.0000 N   0  0  0  0  0  0  0  0  0  0  0  0
    0.0885    0.7914    0.0000 C   0  0  0  0  0  0  0  0  0  0  0  0
   -0.6260    1.2039    0.0000 O   0  0  0  0  0  0  0  0  0  0  0  0
    0.2726    1.8358    0.0000 C   0  0  0  0  0  0  0  0  0  0  0  0
    0.5548    2.6111    0.0000 C   0  0  0  0  0  0  0  0  0  0  0  0
  1  2  1  0
  2  3  1  0
  3  4  1  0
  4  5  1  0
  5  6  2  0
  5  7  1  0
  7  8  1  0
  8  9  2  0
  8 10  1  0
 10 11  1  0
  4 11  1  0
 11 12  2  0
  4 13  1  0
 13 14  1  0
M  END
>  <name>  (180) 
5-ethyl-5-propyl-1,3-diazinane-2,4,6-trione

>  <logBB>  (180) 
0.09

>  <logBB_class>  (180) 
1

>  <HAC>  (180) 
14

$$$$
MolID_69
     RDKit          2D

 14 15  0  0  0  0  0  0  0  0999 V2000
    0.7317   -0.3935    0.0000 C   0  0  0  0  0  0  0  0  0  0  0  0
    0.7317   -1.2185    0.0000 C   0  0  0  0  0  0  0  0  0  0  0  0
    1.3991   -1.7035    0.0000 C   0  0  0  0  0  0  0  0  0  0  0  0
    1.1442   -2.4881    0.0000 C   0  0  0  0  0  0  0  0  0  0  0  0
    1.6291   -3.1555    0.0000 O   0  0  0  0  0  0  0  0  0  0  0  0
    0.3192   -2.4881    0.0000 N   0  0  0  0  0  0  0  0  0  0  0  0
    0.0643   -1.7035    0.0000 N   0  0  0  0  0  0  0  0  0  0  0  0
   -0.7204   -1.4485    0.0000 C   0  0  0  0  0  0  0  0  0  0  0  0
   -0.1657   -3.1555    0.0000 C   0  0  0  0  0  0  0  0  0  0  0  0
    0.1698   -3.9092    0.0000 C   0  0  0  0  0  0  0  0  0  0  0  0
   -0.3151   -4.5766    0.0000 C   0  0  0  0  0  0  0  0  0  0  0  0
   -1.1356   -4.4904    0.0000 C   0  0  0  0  0  0  0  0  0  0  0  0
   -1.4711   -3.7367    0.0000 C   0  0  0  0  0  0  0  0  0  0  0  0
   -0.9862   -3.0693    0.0000 C   0  0  0  0  0  0  0  0  0  0  0  0
  1  2  1  0
  2  3  2  0
  3  4  1  0
  4  5  2  0
  4  6  1  0
  6  7  1  0
  2  7  1  0
  7  8  1  0
  6  9  1  0
  9 10  2  0
 10 11  1  0
 11 12  2  0
 12 13  1  0
 13 14  2  0
  9 14  1  0
M  END
>  <name>  (181) 
antipyrine

>  <logBB>  (181) 
-0.11

>  <logBB_class>  (181) 
0

>  <HAC>  (181) 
14

$$$$
MolID_91
     RDKit          2D

 14 14  0  0  0  0  0  0  0  0999 V2000
    1.4289   -4.1256    0.0000 C   0  0  0  0  0  0  0  0  0  0  0  0
    2.1434   -3.7131    0.0000 C   0  0  0  0  0  0  0  0  0  0  0  0
    2.8579   -4.1256    0.0000 C   0  0  0  0  0  0  0  0  0  0  0  0
    3.5724   -3.7131    0.0000 C   0  0  0  0  0  0  0  0  0  0  0  0
    4.2868   -4.1256    0.0000 O   0  0  0  0  0  0  0  0  0  0  0  0
    5.0013   -3.7131    0.0000 C   0  0  0  0  0  0  0  0  0  0  0  0
    5.0013   -2.8881    0.0000 O   0  0  0  0  0  0  0  0  0  0  0  0
    5.7158   -4.1256    0.0000 C   0  0  0  0  0  0  0  0  0  0  0  0
    6.4302   -3.7131    0.0000 C   0  0  0  0  0  0  0  0  0  0  0  0
    7.1447   -4.1256    0.0000 C   0  0  0  0  0  0  0  0  0  0  0  0
    7.1447   -4.9506    0.0000 C   0  0  0  0  0  0  0  0  0  0  0  0
    6.4302   -5.3631    0.0000 C   0  0  0  0  0  0  0  0  0  0  0  0
    5.7158   -4.9506    0.0000 C   0  0  0  0  0  0  0  0  0  0  0  0
    7.8592   -5.3631    0.0000 N   0  0  0  0  0  0  0  0  0  0  0  0
  1  2  1  0
  2  3  1  0
  3  4  1  0
  4  5  1  0
  5  6  1  0
  6  7  2  0
  6  8  1  0
  8  9  2  0
  9 10  1  0
 10 11  2  0
 11 12  1  0
 12 13  2  0
  8 13  1  0
 11 14  1  0
M  END
>  <name>  (182) 
butamben

>  <logBB>  (182) 
0.42

>  <logBB_class>  (182) 
1

>  <HAC>  (182) 
14

$$$$
MolID_127
     RDKit          2D

 14 15  0  0  0  0  0  0  0  0999 V2000
    2.0359   -1.3002    0.0000 C   0  0  0  0  0  0  0  0  0  0  0  0
    2.7033   -1.7851    0.0000 C   0  0  0  0  0  0  0  0  0  0  0  0
    2.4484   -2.5698    0.0000 N   0  0  0  0  0  0  0  0  0  0  0  0
    1.6234   -2.5698    0.0000 C   0  0  0  0  0  0  0  0  0  0  0  0
    1.3685   -1.7851    0.0000 N   0  0  0  0  0  0  0  0  0  0  0  0
    1.1385   -3.2372    0.0000 N   0  0  0  0  0  0  0  0  0  0  0  0
    0.3180   -3.1510    0.0000 C   0  0  0  0  0  0  0  0  0  0  0  0
   -0.1669   -3.8184    0.0000 C   0  0  0  0  0  0  0  0  0  0  0  0
   -0.9874   -3.7322    0.0000 C   0  0  0  0  0  0  0  0  0  0  0  0
   -1.3230   -2.9785    0.0000 C   0  0  0  0  0  0  0  0  0  0  0  0
   -0.8380   -2.3110    0.0000 C   0  0  0  0  0  0  0  0  0  0  0  0
   -0.0176   -2.3973    0.0000 C   0  0  0  0  0  0  0  0  0  0  0  0
    0.4674   -1.7298    0.0000 Cl  0  0  0  0  0  0  0  0  0  0  0  0
    0.1686   -4.5721    0.0000 Cl  0  0  0  0  0  0  0  0  0  0  0  0
  1  2  1  0
  2  3  1  0
  3  4  1  0
  4  5  2  0
  1  5  1  0
  4  6  1  0
  6  7  1  0
  7  8  2  0
  8  9  1  0
  9 10  2  0
 10 11  1  0
 11 12  2  0
  7 12  1  0
 12 13  1  0
  8 14  1  0
M  END
>  <name>  (183) 
clonidine

>  <logBB>  (183) 
0.12

>  <logBB_class>  (183) 
1

>  <HAC>  (183) 
14

$$$$
MolID_132
     RDKit          2D

 14 16  0  0  0  0  0  0  0  0999 V2000
    1.6420   -1.7074    0.0000 C   0  0  0  0  0  0  0  0  0  0  0  0
    1.7118   -2.8163    0.0000 C   0  0  0  0  0  0  0  0  0  0  0  0
    2.3425   -2.2845    0.0000 C   0  0  0  0  0  0  0  0  0  0  0  0
    2.4125   -1.4625    0.0000 N   0  0  0  0  0  0  0  0  0  0  0  0
    1.8807   -0.8318    0.0000 C   0  0  0  0  0  0  0  0  0  0  0  0
    1.0586   -0.7618    0.0000 C   0  0  0  0  0  0  0  0  0  0  0  0
    0.4279   -1.2936    0.0000 C   0  0  0  0  0  0  0  0  0  0  0  0
   -0.2490   -0.8221    0.0000 C   0  0  0  0  0  0  0  0  0  0  0  0
   -0.9959   -1.1725    0.0000 C   0  0  0  0  0  0  0  0  0  0  0  0
   -1.0658   -1.9945    0.0000 C   0  0  0  0  0  0  0  0  0  0  0  0
   -0.3889   -2.4661    0.0000 C   0  0  0  0  0  0  0  0  0  0  0  0
   -0.4589   -3.2881    0.0000 O   0  0  0  0  0  0  0  0  0  0  0  0
    0.3580   -2.1157    0.0000 N   0  0  0  0  0  0  0  0  0  0  0  0
    0.8898   -2.7464    0.0000 C   0  0  0  0  0  0  0  0  0  0  0  0
  1  2  1  0
  2  3  1  0
  3  4  1  0
  4  5  1  0
  5  6  1  0
  1  6  1  0
  6  7  1  0
  7  8  2  0
  8  9  1  0
  9 10  2  0
 10 11  1  0
 11 12  2  0
 11 13  1  0
  7 13  1  0
 13 14  1  0
  2 14  1  0
M  END
>  <name>  (184) 
cytisine

>  <logBB>  (184) 
-1.09

>  <logBB_class>  (184) 
0

>  <HAC>  (184) 
14

$$$$
MolID_36
     RDKit          2D

 15 17  0  0  0  0  0  0  0  0999 V2000
    1.7409   -1.5400    0.0000 C   0  0  0  0  0  0  0  0  0  0  0  0
    1.8106   -2.6489    0.0000 C   0  0  0  0  0  0  0  0  0  0  0  0
    2.4413   -2.1171    0.0000 C   0  0  0  0  0  0  0  0  0  0  0  0
    2.5113   -1.2951    0.0000 N   0  0  0  0  0  0  0  0  0  0  0  0
    1.9795   -0.6643    0.0000 C   0  0  0  0  0  0  0  0  0  0  0  0
    1.1575   -0.5944    0.0000 C   0  0  0  0  0  0  0  0  0  0  0  0
    0.5267   -1.1262    0.0000 C   0  0  0  0  0  0  0  0  0  0  0  0
   -0.1502   -0.6546    0.0000 C   0  0  0  0  0  0  0  0  0  0  0  0
   -0.8971   -1.0050    0.0000 C   0  0  0  0  0  0  0  0  0  0  0  0
   -0.9670   -1.8271    0.0000 C   0  0  0  0  0  0  0  0  0  0  0  0
   -0.2901   -2.2987    0.0000 C   0  0  0  0  0  0  0  0  0  0  0  0
   -0.3600   -3.1207    0.0000 O   0  0  0  0  0  0  0  0  0  0  0  0
    0.4568   -1.9482    0.0000 N   0  0  0  0  0  0  0  0  0  0  0  0
    0.9886   -2.5789    0.0000 C   0  0  0  0  0  0  0  0  0  0  0  0
    2.3587    0.0684    0.0000 Br  0  0  0  0  0  0  0  0  0  0  0  0
  1  2  1  0
  2  3  1  0
  3  4  1  0
  4  5  1  0
  5  6  1  0
  1  6  1  0
  6  7  1  0
  7  8  2  0
  8  9  1  0
  9 10  2  0
 10 11  1  0
 11 12  2  0
 11 13  1  0
  7 13  1  0
 13 14  1  0
  2 14  1  0
  5 15  1  0
M  END
>  <name>  (185) 
3-bromocytisine

>  <logBB>  (185) 
-0.05

>  <logBB_class>  (185) 
0

>  <HAC>  (185) 
15

$$$$
MolID_41
     RDKit          2D

 15 16  0  0  0  0  0  0  0  0999 V2000
    0.7145   -1.2375    0.0000 C   0  0  0  0  0  0  0  0  0  0  0  0
    1.4289   -1.6500    0.0000 C   0  0  0  0  0  0  0  0  0  0  0  0
    1.4289   -2.4750    0.0000 C   0  0  0  0  0  0  0  0  0  0  0  0
    0.7145   -2.8875    0.0000 C   0  0  0  0  0  0  0  0  0  0  0  0
    0.0000   -2.4750    0.0000 C   0  0  0  0  0  0  0  0  0  0  0  0
    0.0000   -1.6500    0.0000 C   0  0  0  0  0  0  0  0  0  0  0  0
    0.7145   -3.7125    0.0000 C   0  0  0  0  0  0  0  0  0  0  0  0
    1.4289   -4.1250    0.0000 C   0  0  0  0  0  0  0  0  0  0  0  0
    1.4289   -4.9500    0.0000 C   0  0  0  0  0  0  0  0  0  0  0  0
    0.7145   -5.3625    0.0000 C   0  0  0  0  0  0  0  0  0  0  0  0
    0.0000   -4.9500    0.0000 C   0  0  0  0  0  0  0  0  0  0  0  0
    0.0000   -4.1250    0.0000 C   0  0  0  0  0  0  0  0  0  0  0  0
    0.7145   -6.1875    0.0000 C   0  0  0  0  0  0  0  0  0  0  0  0
    1.4289   -6.6000    0.0000 O   0  0  0  0  0  0  0  0  0  0  0  0
    0.0000   -6.6000    0.0000 O   0  0  0  0  0  0  0  0  0  0  0  0
  1  2  2  0
  2  3  1  0
  3  4  2  0
  4  5  1  0
  5  6  2  0
  1  6  1  0
  4  7  1  0
  7  8  2  0
  8  9  1  0
  9 10  2  0
 10 11  1  0
 11 12  2  0
  7 12  1  0
 10 13  1  0
 13 14  1  0
 13 15  2  0
M  END
>  <name>  (186) 
4-carboxybiphenyl

>  <logBB>  (186) 
-1.26

>  <logBB_class>  (186) 
0

>  <HAC>  (186) 
15

$$$$
MolID_43
     RDKit          2D

 15 16  0  0  0  0  0  0  0  0999 V2000
    0.7317   -0.3935    0.0000 C   0  0  0  0  0  0  0  0  0  0  0  0
    0.7317   -1.2185    0.0000 C   0  0  0  0  0  0  0  0  0  0  0  0
    1.3991   -1.7035    0.0000 C   0  0  0  0  0  0  0  0  0  0  0  0
    1.1442   -2.4881    0.0000 C   0  0  0  0  0  0  0  0  0  0  0  0
    1.6291   -3.1555    0.0000 O   0  0  0  0  0  0  0  0  0  0  0  0
    0.3192   -2.4881    0.0000 N   0  0  0  0  0  0  0  0  0  0  0  0
    0.0643   -1.7035    0.0000 N   0  0  0  0  0  0  0  0  0  0  0  0
   -0.7204   -1.4485    0.0000 C   0  0  0  0  0  0  0  0  0  0  0  0
   -0.1657   -3.1555    0.0000 C   0  0  0  0  0  0  0  0  0  0  0  0
    0.1698   -3.9092    0.0000 C   0  0  0  0  0  0  0  0  0  0  0  0
   -0.3151   -4.5766    0.0000 C   0  0  0  0  0  0  0  0  0  0  0  0
   -1.1356   -4.4904    0.0000 C   0  0  0  0  0  0  0  0  0  0  0  0
   -1.4711   -3.7367    0.0000 C   0  0  0  0  0  0  0  0  0  0  0  0
   -0.9862   -3.0693    0.0000 C   0  0  0  0  0  0  0  0  0  0  0  0
   -1.6205   -5.1578    0.0000 F   0  0  0  0  0  0  0  0  0  0  0  0
  1  2  1  0
  2  3  2  0
  3  4  1  0
  4  5  2  0
  4  6  1  0
  6  7  1  0
  2  7  1  0
  7  8  1  0
  6  9  1  0
  9 10  2  0
 10 11  1  0
 11 12  2  0
 12 13  1  0
 13 14  2  0
  9 14  1  0
 12 15  1  0
M  END
>  <name>  (187) 
4-fluoroantipyrine

>  <logBB>  (187) 
-0.05

>  <logBB_class>  (187) 
0

>  <HAC>  (187) 
15

$$$$
MolID_46
     RDKit          2D

 15 16  0  0  0  0  0  0  0  0999 V2000
    0.7317   -0.3935    0.0000 C   0  0  0  0  0  0  0  0  0  0  0  0
    0.7317   -1.2185    0.0000 C   0  0  0  0  0  0  0  0  0  0  0  0
    1.3991   -1.7035    0.0000 C   0  0  0  0  0  0  0  0  0  0  0  0
    1.1442   -2.4881    0.0000 C   0  0  0  0  0  0  0  0  0  0  0  0
    0.3192   -2.4881    0.0000 N   0  0  0  0  0  0  0  0  0  0  0  0
    0.0643   -1.7035    0.0000 N   0  0  0  0  0  0  0  0  0  0  0  0
   -0.7204   -1.4485    0.0000 C   0  0  0  0  0  0  0  0  0  0  0  0
   -0.1657   -3.1555    0.0000 C   0  0  0  0  0  0  0  0  0  0  0  0
    0.1698   -3.9092    0.0000 C   0  0  0  0  0  0  0  0  0  0  0  0
   -0.3151   -4.5766    0.0000 C   0  0  0  0  0  0  0  0  0  0  0  0
   -1.1356   -4.4904    0.0000 C   0  0  0  0  0  0  0  0  0  0  0  0
   -1.4711   -3.7367    0.0000 C   0  0  0  0  0  0  0  0  0  0  0  0
   -0.9862   -3.0693    0.0000 C   0  0  0  0  0  0  0  0  0  0  0  0
    1.6291   -3.1555    0.0000 O   0  0  0  0  0  0  0  0  0  0  0  0
    2.1838   -1.4485    0.0000 I   0  0  0  0  0  0  0  0  0  0  0  0
  1  2  1  0
  2  3  2  0
  3  4  1  0
  4  5  1  0
  5  6  1  0
  2  6  1  0
  6  7  1  0
  5  8  1  0
  8  9  2  0
  9 10  1  0
 10 11  2  0
 11 12  1  0
 12 13  2  0
  8 13  1  0
  4 14  2  0
  3 15  1  0
M  END
>  <name>  (188) 
4-Iodoantipyrine

>  <logBB>  (188) 
-0.1

>  <logBB_class>  (188) 
0

>  <HAC>  (188) 
15

$$$$
MolID_52
     RDKit          2D

 15 17  0  0  0  0  0  0  0  0999 V2000
    1.4300   -2.4750    0.0000 C   0  0  0  0  0  0  0  0  0  0  0  0
    1.4300   -1.6500    0.0000 C   0  0  0  0  0  0  0  0  0  0  0  0
    2.1445   -1.2375    0.0000 C   0  0  0  0  0  0  0  0  0  0  0  0
    2.8589   -1.6500    0.0000 C   0  0  0  0  0  0  0  0  0  0  0  0
    3.5734   -1.2375    0.0000 N   0  0  0  0  0  0  0  0  0  0  0  0
    4.2879   -1.6500    0.0000 C   0  0  0  0  0  0  0  0  0  0  0  0
    5.0024   -1.2375    0.0000 C   0  0  0  0  0  0  0  0  0  0  0  0
    5.7168   -1.6500    0.0000 C   0  0  0  0  0  0  0  0  0  0  0  0
    5.7168   -2.4750    0.0000 C   0  0  0  0  0  0  0  0  0  0  0  0
    5.0024   -2.8875    0.0000 C   0  0  0  0  0  0  0  0  0  0  0  0
    4.2879   -2.4750    0.0000 C   0  0  0  0  0  0  0  0  0  0  0  0
    3.5734   -2.8875    0.0000 C   0  0  0  0  0  0  0  0  0  0  0  0
    2.8589   -2.4750    0.0000 C   0  0  0  0  0  0  0  0  0  0  0  0
    2.1445   -2.8875    0.0000 C   0  0  0  0  0  0  0  0  0  0  0  0
    3.5734   -3.7125    0.0000 N   0  0  0  0  0  0  0  0  0  0  0  0
  1  2  1  0
  2  3  1  0
  3  4  1  0
  4  5  2  0
  5  6  1  0
  6  7  2  0
  7  8  1  0
  8  9  2  0
  9 10  1  0
 10 11  2  0
  6 11  1  0
 11 12  1  0
 12 13  2  0
  4 13  1  0
 13 14  1  0
  1 14  1  0
 12 15  1  0
M  END
>  <name>  (189) 
acebutolol

>  <logBB>  (189) 
-0.15

>  <logBB_class>  (189) 
0

>  <HAC>  (189) 
15

$$$$
MolID_93
     RDKit          2D

 15 15  0  0  0  0  0  0  0  0999 V2000
    0.4711    4.0218    0.0000 C   0  0  0  0  0  0  0  0  0  0  0  0
    0.1889    3.2465    0.0000 C   0  0  0  0  0  0  0  0  0  0  0  0
    0.7192    2.6145    0.0000 C   0  0  0  0  0  0  0  0  0  0  0  0
    0.4370    1.8393    0.0000 C   0  0  0  0  0  0  0  0  0  0  0  0
    0.9673    1.2073    0.0000 C   0  0  0  0  0  0  0  0  0  0  0  0
    1.6818    0.7948    0.0000 C   0  0  0  0  0  0  0  0  0  0  0  0
    2.3963    1.2073    0.0000 O   0  0  0  0  0  0  0  0  0  0  0  0
    1.6818   -0.0302    0.0000 N   0  0  0  0  0  0  0  0  0  0  0  0
    0.9673   -0.4427    0.0000 C   0  0  0  0  0  0  0  0  0  0  0  0
    0.9673   -1.2677    0.0000 O   0  0  0  0  0  0  0  0  0  0  0  0
    0.2529   -0.0302    0.0000 N   0  0  0  0  0  0  0  0  0  0  0  0
    0.2529    0.7948    0.0000 C   0  0  0  0  0  0  0  0  0  0  0  0
   -0.4616    1.2073    0.0000 O   0  0  0  0  0  0  0  0  0  0  0  0
    1.4976    1.8393    0.0000 C   0  0  0  0  0  0  0  0  0  0  0  0
    1.2155    2.6145    0.0000 C   0  0  0  0  0  0  0  0  0  0  0  0
  1  2  1  0
  2  3  1  0
  3  4  1  0
  4  5  1  0
  5  6  1  0
  6  7  2  0
  6  8  1  0
  8  9  1  0
  9 10  2  0
  9 11  1  0
 11 12  1  0
  5 12  1  0
 12 13  2  0
  5 14  1  0
 14 15  1  0
M  END
>  <name>  (190) 
butethal

>  <logBB>  (190) 
0.19

>  <logBB_class>  (190) 
1

>  <HAC>  (190) 
15

$$$$
MolID_168
     RDKit          2D

 15 15  0  0  0  0  0  0  0  0999 V2000
   -0.3911   -0.5857    0.0000 O   0  0  0  0  0  0  0  0  0  0  0  0
    0.3935   -0.3308    0.0000 N   0  0  0  0  0  0  0  0  0  0  0  0
    0.5651    0.4762    0.0000 C   0  0  0  0  0  0  0  0  0  0  0  0
    0.0130    1.0893    0.0000 N   0  0  0  0  0  0  0  0  0  0  0  0
    0.4255    1.8037    0.0000 C   0  0  0  0  0  0  0  0  0  0  0  0
    1.2325    1.6322    0.0000 C   0  0  0  0  0  0  0  0  0  0  0  0
    1.3187    0.8117    0.0000 N   0  0  0  0  0  0  0  0  0  0  0  0
    2.0332    0.3992    0.0000 C   0  0  0  0  0  0  0  0  0  0  0  0
    2.7477    0.8117    0.0000 C   0  0  0  0  0  0  0  0  0  0  0  0
    3.4621    0.3992    0.0000 C   0  0  0  0  0  0  0  0  0  0  0  0
    4.1766    0.8117    0.0000 O   0  0  0  0  0  0  0  0  0  0  0  0
    4.8911    0.3992    0.0000 C   0  0  0  0  0  0  0  0  0  0  0  0
    5.6056    0.8117    0.0000 F   0  0  0  0  0  0  0  0  0  0  0  0
    2.7477    1.6367    0.0000 O   0  0  0  0  0  0  0  0  0  0  0  0
    1.0066   -0.8828    0.0000 O   0  0  0  0  0  0  0  0  0  0  0  0
  1  2  2  0
  2  3  1  0
  3  4  2  0
  4  5  1  0
  5  6  2  0
  6  7  1  0
  3  7  1  0
  7  8  1  0
  8  9  1  0
  9 10  1  0
 10 11  1  0
 11 12  1  0
 12 13  1  0
  9 14  1  0
  2 15  1  0
M  CHG  2   2   1  15  -1
M  END
>  <name>  (191) 
fluoromisonidazole

>  <logBB>  (191) 
-0.01

>  <logBB_class>  (191) 
0

>  <HAC>  (191) 
15

>  <StandardizerResult>  (191) 
Transform (ID: Transform Nitro)

$$$$
MolID_180
     RDKit          2D

 15 15  0  0  0  0  0  0  0  0999 V2000
   -0.0038    3.3629    0.0000 C   0  0  0  0  0  0  0  0  0  0  0  0
   -0.0038    2.5379    0.0000 C   0  0  0  0  0  0  0  0  0  0  0  0
   -0.7183    2.1254    0.0000 C   0  0  0  0  0  0  0  0  0  0  0  0
    0.7106    2.1254    0.0000 C   0  0  0  0  0  0  0  0  0  0  0  0
    0.7106    1.3004    0.0000 C   0  0  0  0  0  0  0  0  0  0  0  0
    1.4251    0.8879    0.0000 C   0  0  0  0  0  0  0  0  0  0  0  0
    1.4251    0.0629    0.0000 C   0  0  0  0  0  0  0  0  0  0  0  0
    0.7106   -0.3496    0.0000 C   0  0  0  0  0  0  0  0  0  0  0  0
   -0.0038    0.0629    0.0000 C   0  0  0  0  0  0  0  0  0  0  0  0
   -0.0038    0.8879    0.0000 C   0  0  0  0  0  0  0  0  0  0  0  0
    0.7106   -1.1746    0.0000 C   0  0  0  0  0  0  0  0  0  0  0  0
    1.4251   -1.5871    0.0000 C   0  0  0  0  0  0  0  0  0  0  0  0
   -0.0038   -1.5871    0.0000 C   0  0  0  0  0  0  0  0  0  0  0  0
   -0.0038   -2.4121    0.0000 O   0  0  0  0  0  0  0  0  0  0  0  0
   -0.7183   -1.1746    0.0000 O   0  0  0  0  0  0  0  0  0  0  0  0
  1  2  1  0
  2  3  1  0
  2  4  1  0
  4  5  1  0
  5  6  2  0
  6  7  1  0
  7  8  2  0
  8  9  1  0
  9 10  2  0
  5 10  1  0
  8 11  1  0
 11 12  1  0
 11 13  1  0
 13 14  1  0
 13 15  2  0
M  END
>  <name>  (192) 
ibuprofen

>  <logBB>  (192) 
-0.18

>  <logBB_class>  (192) 
0

>  <HAC>  (192) 
15

$$$$
MolID_50
     RDKit          2D

 16 16  0  0  0  0  0  0  0  0999 V2000
   -3.8506    1.3621    0.0000 O   0  0  0  0  0  0  0  0  0  0  0  0
   -3.3203    0.7302    0.0000 C   0  0  0  0  0  0  0  0  0  0  0  0
   -2.5079    0.8734    0.0000 C   0  0  0  0  0  0  0  0  0  0  0  0
   -2.7900    1.6487    0.0000 C   0  0  0  0  0  0  0  0  0  0  0  0
   -2.2597    2.2806    0.0000 C   0  0  0  0  0  0  0  0  0  0  0  0
   -1.9776    0.2414    0.0000 C   0  0  0  0  0  0  0  0  0  0  0  0
   -2.2597   -0.5338    0.0000 N   0  0  0  0  0  0  0  0  0  0  0  0
   -3.0722   -0.6771    0.0000 C   0  0  0  0  0  0  0  0  0  0  0  0
   -3.6025   -0.0451    0.0000 N   0  0  0  0  0  0  0  0  0  0  0  0
   -3.3544   -1.4523    0.0000 O   0  0  0  0  0  0  0  0  0  0  0  0
   -1.1651    0.3847    0.0000 O   0  0  0  0  0  0  0  0  0  0  0  0
   -1.7934    1.2859    0.0000 C   0  0  0  0  0  0  0  0  0  0  0  0
   -1.0789    0.8734    0.0000 C   0  0  0  0  0  0  0  0  0  0  0  0
   -0.3644    1.2859    0.0000 C   0  0  0  0  0  0  0  0  0  0  0  0
    0.3500    0.8734    0.0000 C   0  0  0  0  0  0  0  0  0  0  0  0
    1.0645    1.2859    0.0000 C   0  0  0  0  0  0  0  0  0  0  0  0
  1  2  2  0
  2  3  1  0
  3  4  1  0
  4  5  1  0
  3  6  1  0
  6  7  1  0
  7  8  1  0
  8  9  1  0
  2  9  1  0
  8 10  2  0
  6 11  2  0
  3 12  1  0
 12 13  1  0
 13 14  1  0
 14 15  1  0
 15 16  1  0
M  END
>  <name>  (193) 
5-Pentyl-5-ethylbarbituricacid

>  <logBB>  (193) 
0.09

>  <logBB_class>  (193) 
1

>  <HAC>  (193) 
16

$$$$
MolID_56
     RDKit          2D

 16 17  0  0  0  0  0  0  0  0999 V2000
   -3.4873   -0.1725    0.0000 C   0  0  0  0  0  0  0  0  0  0  0  0
   -4.2943   -0.0009    0.0000 N   0  0  0  0  0  0  0  0  0  0  0  0
   -4.7068   -0.7154    0.0000 C   0  0  0  0  0  0  0  0  0  0  0  0
   -4.1548   -1.3285    0.0000 C   0  0  0  0  0  0  0  0  0  0  0  0
   -3.4011   -0.9929    0.0000 N   0  0  0  0  0  0  0  0  0  0  0  0
   -2.6866   -1.4054    0.0000 C   0  0  0  0  0  0  0  0  0  0  0  0
   -1.9721   -0.9929    0.0000 O   0  0  0  0  0  0  0  0  0  0  0  0
   -1.2577   -1.4054    0.0000 C   0  0  0  0  0  0  0  0  0  0  0  0
   -0.5432   -0.9929    0.0000 C   0  0  0  0  0  0  0  0  0  0  0  0
    0.1713   -1.4054    0.0000 O   0  0  0  0  0  0  0  0  0  0  0  0
   -4.4097   -2.1131    0.0000 N   0  0  0  0  0  0  0  0  0  0  0  0
   -5.2167   -2.2847    0.0000 C   0  0  0  0  0  0  0  0  0  0  0  0
   -5.7687   -1.6716    0.0000 N   0  0  0  0  0  0  0  0  0  0  0  0
   -5.5138   -0.8869    0.0000 C   0  0  0  0  0  0  0  0  0  0  0  0
   -6.0658   -0.2738    0.0000 O   0  0  0  0  0  0  0  0  0  0  0  0
   -5.4716   -3.0693    0.0000 N   0  0  0  0  0  0  0  0  0  0  0  0
  1  2  2  0
  2  3  1  0
  3  4  2  0
  4  5  1  0
  1  5  1  0
  5  6  1  0
  6  7  1  0
  7  8  1  0
  8  9  1  0
  9 10  1  0
  4 11  1  0
 11 12  2  0
 12 13  1  0
 13 14  1  0
  3 14  1  0
 14 15  2  0
 12 16  1  0
M  END
>  <name>  (194) 
acyclovir

>  <logBB>  (194) 
-0.84

>  <logBB_class>  (194) 
0

>  <HAC>  (194) 
16

$$$$
MolID_65
     RDKit          2D

 16 16  0  0  0  0  0  0  0  0999 V2000
    0.2647    2.7053    0.0000 C   0  0  0  0  0  0  0  0  0  0  0  0
   -0.0175    1.9301    0.0000 C   0  0  0  0  0  0  0  0  0  0  0  0
    0.5128    1.2981    0.0000 C   0  0  0  0  0  0  0  0  0  0  0  0
    1.2273    0.8856    0.0000 C   0  0  0  0  0  0  0  0  0  0  0  0
    1.9418    1.2981    0.0000 O   0  0  0  0  0  0  0  0  0  0  0  0
    1.2273    0.0606    0.0000 N   0  0  0  0  0  0  0  0  0  0  0  0
    0.5128   -0.3519    0.0000 C   0  0  0  0  0  0  0  0  0  0  0  0
    0.5128   -1.1769    0.0000 O   0  0  0  0  0  0  0  0  0  0  0  0
   -0.2016    0.0606    0.0000 N   0  0  0  0  0  0  0  0  0  0  0  0
   -0.2016    0.8856    0.0000 C   0  0  0  0  0  0  0  0  0  0  0  0
   -0.9161    1.2981    0.0000 O   0  0  0  0  0  0  0  0  0  0  0  0
    1.0431    1.9301    0.0000 C   0  0  0  0  0  0  0  0  0  0  0  0
    0.7610    2.7053    0.0000 C   0  0  0  0  0  0  0  0  0  0  0  0
    1.2913    3.3373    0.0000 C   0  0  0  0  0  0  0  0  0  0  0  0
    1.0091    4.1126    0.0000 C   0  0  0  0  0  0  0  0  0  0  0  0
    2.1037    3.1941    0.0000 C   0  0  0  0  0  0  0  0  0  0  0  0
  1  2  1  0
  2  3  1  0
  3  4  1  0
  4  5  2  0
  4  6  1  0
  6  7  1  0
  7  8  2  0
  7  9  1  0
  9 10  1  0
  3 10  1  0
 10 11  2  0
  3 12  1  0
 12 13  1  0
 13 14  1  0
 14 15  1  0
 14 16  1  0
M  END
>  <name>  (195) 
amobarbital

>  <logBB>  (195) 
0.11

>  <logBB_class>  (195) 
1

>  <HAC>  (195) 
16

$$$$
MolID_89
     RDKit          2D

 16 16  0  0  0  0  0  0  0  0999 V2000
   -0.7516    2.1063    0.0000 C   0  0  0  0  0  0  0  0  0  0  0  0
   -0.0371    2.5188    0.0000 C   0  0  0  0  0  0  0  0  0  0  0  0
    0.6773    2.1063    0.0000 C   0  0  0  0  0  0  0  0  0  0  0  0
    1.3918    2.5188    0.0000 O   0  0  0  0  0  0  0  0  0  0  0  0
    0.6773    1.2813    0.0000 C   0  0  0  0  0  0  0  0  0  0  0  0
    1.3918    0.8688    0.0000 C   0  0  0  0  0  0  0  0  0  0  0  0
    1.3918    0.0438    0.0000 C   0  0  0  0  0  0  0  0  0  0  0  0
    0.6773   -0.3687    0.0000 C   0  0  0  0  0  0  0  0  0  0  0  0
   -0.0371    0.0438    0.0000 C   0  0  0  0  0  0  0  0  0  0  0  0
   -0.0371    0.8688    0.0000 C   0  0  0  0  0  0  0  0  0  0  0  0
    2.1063   -0.3687    0.0000 Cl  0  0  0  0  0  0  0  0  0  0  0  0
   -0.0371    3.3438    0.0000 N   0  0  0  0  0  0  0  0  0  0  0  0
   -0.7516    3.7563    0.0000 C   0  0  0  0  0  0  0  0  0  0  0  0
   -1.4661    4.1688    0.0000 C   0  0  0  0  0  0  0  0  0  0  0  0
   -0.3391    4.4708    0.0000 C   0  0  0  0  0  0  0  0  0  0  0  0
   -1.1641    3.0419    0.0000 C   0  0  0  0  0  0  0  0  0  0  0  0
  1  2  1  0
  2  3  1  0
  3  4  2  0
  3  5  1  0
  5  6  2  0
  6  7  1  0
  7  8  2  0
  8  9  1  0
  9 10  2  0
  5 10  1  0
  7 11  1  0
  2 12  1  0
 12 13  1  0
 13 14  1  0
 13 15  1  0
 13 16  1  0
M  END
>  <name>  (196) 
bupropion

>  <logBB>  (196) 
1.4

>  <logBB_class>  (196) 
1

>  <HAC>  (196) 
16

$$$$
MolID_107
     RDKit          2D

 16 17  0  0  0  0  0  0  0  0999 V2000
   -0.6078    4.3527    0.0000 C   0  0  0  0  0  0  0  0  0  0  0  0
   -0.6078    3.5277    0.0000 C   0  0  0  0  0  0  0  0  0  0  0  0
   -1.3222    3.1152    0.0000 C   0  0  0  0  0  0  0  0  0  0  0  0
   -2.0367    3.5277    0.0000 C   0  0  0  0  0  0  0  0  0  0  0  0
   -2.0367    4.3527    0.0000 C   0  0  0  0  0  0  0  0  0  0  0  0
   -1.3222    4.7652    0.0000 C   0  0  0  0  0  0  0  0  0  0  0  0
   -2.7512    4.7652    0.0000 N   0  0  0  0  0  0  0  0  0  0  0  0
   -1.3222    2.2902    0.0000 C   0  0  0  0  0  0  0  0  0  0  0  0
   -0.6548    1.8053    0.0000 C   0  0  0  0  0  0  0  0  0  0  0  0
   -0.9097    1.0206    0.0000 S   0  0  0  0  0  0  0  0  0  0  0  0
   -1.7347    1.0206    0.0000 C   0  0  0  0  0  0  0  0  0  0  0  0
   -1.9897    1.8053    0.0000 N   0  0  0  0  0  0  0  0  0  0  0  0
   -2.2197    0.3532    0.0000 N   0  0  0  0  0  0  0  0  0  0  0  0
   -3.0401    0.4394    0.0000 C   0  0  0  0  0  0  0  0  0  0  0  0
   -3.5251   -0.2280    0.0000 N   0  0  0  0  0  0  0  0  0  0  0  0
   -3.3757    1.1931    0.0000 N   0  0  0  0  0  0  0  0  0  0  0  0
  1  2  2  0
  2  3  1  0
  3  4  2  0
  4  5  1  0
  5  6  2  0
  1  6  1  0
  5  7  1  0
  3  8  1  0
  8  9  2  0
  9 10  1  0
 10 11  1  0
 11 12  2  0
  8 12  1  0
 13 11  1  0
 13 14  1  0
 14 15  2  0
 14 16  1  0
M  END
>  <name>  (197) 
CHEBI338063

>  <logBB>  (197) 
-1.15

>  <logBB_class>  (197) 
0

>  <HAC>  (197) 
16

$$$$
MolID_20
     RDKit          2D

 17 18  0  0  0  0  0  0  0  0999 V2000
    0.7180   -0.4363    0.0000 I   0  0  0  0  0  0  0  0  0  0  0  0
    0.7180   -1.2613    0.0000 C   0  0  0  0  0  0  0  0  0  0  0  0
    1.4324   -1.6738    0.0000 C   0  0  0  0  0  0  0  0  0  0  0  0
    1.4324   -2.4988    0.0000 C   0  0  0  0  0  0  0  0  0  0  0  0
    0.7180   -2.9113    0.0000 C   0  0  0  0  0  0  0  0  0  0  0  0
    0.7180   -3.7363    0.0000 N   0  0  0  0  0  0  0  0  0  0  0  0
    1.4324   -4.1488    0.0000 C   0  0  0  0  0  0  0  0  0  0  0  0
    1.4324   -4.9738    0.0000 C   0  0  0  0  0  0  0  0  0  0  0  0
    0.7180   -5.3863    0.0000 N   0  0  0  0  0  0  0  0  0  0  0  0
    0.0035   -4.9738    0.0000 C   0  0  0  0  0  0  0  0  0  0  0  0
    0.0035   -4.1488    0.0000 C   0  0  0  0  0  0  0  0  0  0  0  0
    0.7180   -6.2113    0.0000 C   0  0  0  0  0  0  0  0  0  0  0  0
    0.0035   -6.6238    0.0000 C   0  0  0  0  0  0  0  0  0  0  0  0
    0.0035   -7.4488    0.0000 C   0  0  0  0  0  0  0  0  0  0  0  0
    1.4324   -6.6238    0.0000 C   0  0  0  0  0  0  0  0  0  0  0  0
    0.0035   -2.4988    0.0000 C   0  0  0  0  0  0  0  0  0  0  0  0
    0.0035   -1.6738    0.0000 C   0  0  0  0  0  0  0  0  0  0  0  0
  1  2  1  0
  2  3  2  0
  3  4  1  0
  4  5  2  0
  5  6  1  0
  6  7  1  0
  7  8  1  0
  8  9  1  0
  9 10  1  0
 10 11  1  0
  6 11  1  0
  9 12  1  0
 12 13  1  0
 13 14  1  0
 12 15  1  0
  5 16  1  0
 16 17  2  0
  2 17  1  0
M  END
>  <name>  (198) 
1-isobutyl-4-(4-iodophenyl)piperazine

>  <logBB>  (198) 
1.38

>  <logBB_class>  (198) 
1

>  <HAC>  (198) 
17

$$$$
MolID_47
     RDKit          2D

 17 17  0  0  0  0  0  0  0  0999 V2000
    0.7454    2.0807    0.0000 I   0  0  0  0  0  0  0  0  0  0  0  0
    0.7454    1.2557    0.0000 C   0  0  0  0  0  0  0  0  0  0  0  0
    1.4598    0.8432    0.0000 C   0  0  0  0  0  0  0  0  0  0  0  0
    1.4598    0.0182    0.0000 C   0  0  0  0  0  0  0  0  0  0  0  0
    0.7454   -0.3943    0.0000 C   0  0  0  0  0  0  0  0  0  0  0  0
    0.0309    0.0182    0.0000 C   0  0  0  0  0  0  0  0  0  0  0  0
    0.0309    0.8432    0.0000 C   0  0  0  0  0  0  0  0  0  0  0  0
    0.7454   -1.2193    0.0000 N   0  0  0  0  0  0  0  0  0  0  0  0
    0.0309   -1.6318    0.0000 C   0  0  0  0  0  0  0  0  0  0  0  0
    0.0309   -2.4568    0.0000 C   0  0  0  0  0  0  0  0  0  0  0  0
   -0.6836   -2.8693    0.0000 C   0  0  0  0  0  0  0  0  0  0  0  0
   -0.6836   -1.2193    0.0000 C   0  0  0  0  0  0  0  0  0  0  0  0
    2.1743    1.2557    0.0000 N   0  0  0  0  0  0  0  0  0  0  0  0
    2.1743    2.0807    0.0000 C   0  0  0  0  0  0  0  0  0  0  0  0
    2.8888    2.4932    0.0000 C   0  0  0  0  0  0  0  0  0  0  0  0
    2.8888    3.3182    0.0000 C   0  0  0  0  0  0  0  0  0  0  0  0
    1.4598    2.4932    0.0000 C   0  0  0  0  0  0  0  0  0  0  0  0
  1  2  1  0
  2  3  2  0
  3  4  1  0
  4  5  2  0
  5  6  1  0
  6  7  2  0
  2  7  1  0
  5  8  1  0
  8  9  1  0
  9 10  1  0
 10 11  1  0
  9 12  1  0
  3 13  1  0
 13 14  1  0
 14 15  1  0
 15 16  1  0
 14 17  1  0
M  END
>  <name>  (199) 
4-iodo-N,N'-isopropyl-m-xylenediamine

>  <logBB>  (199) 
0.64

>  <logBB_class>  (199) 
1

>  <HAC>  (199) 
17

$$$$
MolID_59
     RDKit          2D

 17 18  0  0  0  0  0  0  0  0999 V2000
   -0.1267    4.8147    0.0000 C   0  0  0  0  0  0  0  0  0  0  0  0
   -0.8412    4.4022    0.0000 C   0  0  0  0  0  0  0  0  0  0  0  0
   -0.8412    3.5772    0.0000 C   0  0  0  0  0  0  0  0  0  0  0  0
   -1.5556    3.1647    0.0000 N   0  0  0  0  0  0  0  0  0  0  0  0
   -2.2701    3.5772    0.0000 C   0  0  0  0  0  0  0  0  0  0  0  0
   -2.9846    3.1647    0.0000 O   0  0  0  0  0  0  0  0  0  0  0  0
   -2.2701    4.4022    0.0000 N   0  0  0  0  0  0  0  0  0  0  0  0
   -1.5556    4.8147    0.0000 C   0  0  0  0  0  0  0  0  0  0  0  0
   -1.5556    5.6397    0.0000 O   0  0  0  0  0  0  0  0  0  0  0  0
   -1.5556    2.3397    0.0000 C   0  0  0  0  0  0  0  0  0  0  0  0
   -0.8882    1.8547    0.0000 C   0  0  0  0  0  0  0  0  0  0  0  0
   -1.1431    1.0701    0.0000 C   0  0  0  0  0  0  0  0  0  0  0  0
   -1.9681    1.0701    0.0000 C   0  0  0  0  0  0  0  0  0  0  0  0
   -2.2231    1.8547    0.0000 O   0  0  0  0  0  0  0  0  0  0  0  0
   -2.4531    0.4027    0.0000 C   0  0  0  0  0  0  0  0  0  0  0  0
   -2.1175   -0.3510    0.0000 O   0  0  0  0  0  0  0  0  0  0  0  0
   -0.6582    0.4027    0.0000 F   0  0  0  0  0  0  0  0  0  0  0  0
  1  2  1  0
  2  3  2  0
  3  4  1  0
  4  5  1  0
  5  6  2  0
  5  7  1  0
  7  8  1  0
  2  8  1  0
  8  9  2  0
  4 10  1  0
 10 11  1  0
 11 12  1  0
 12 13  1  0
 13 14  1  0
 10 14  1  0
 13 15  1  0
 15 16  1  0
 12 17  1  0
M  END
>  <name>  (200) 
alovudine

>  <logBB>  (200) 
-0.59

>  <logBB_class>  (200) 
0

>  <HAC>  (200) 
17

$$$$
MolID_63
     RDKit          2D

 17 18  0  0  0  0  0  0  0  0999 V2000
    0.7281   -0.3377    0.0000 C   0  0  0  0  0  0  0  0  0  0  0  0
    0.7281   -1.1627    0.0000 C   0  0  0  0  0  0  0  0  0  0  0  0
    1.3956   -1.6476    0.0000 C   0  0  0  0  0  0  0  0  0  0  0  0
    1.1406   -2.4322    0.0000 C   0  0  0  0  0  0  0  0  0  0  0  0
    1.6256   -3.0997    0.0000 O   0  0  0  0  0  0  0  0  0  0  0  0
    0.3156   -2.4322    0.0000 N   0  0  0  0  0  0  0  0  0  0  0  0
    0.0607   -1.6476    0.0000 N   0  0  0  0  0  0  0  0  0  0  0  0
   -0.7239   -1.3927    0.0000 C   0  0  0  0  0  0  0  0  0  0  0  0
   -0.1693   -3.0997    0.0000 C   0  0  0  0  0  0  0  0  0  0  0  0
    0.1663   -3.8534    0.0000 C   0  0  0  0  0  0  0  0  0  0  0  0
   -0.3187   -4.5208    0.0000 C   0  0  0  0  0  0  0  0  0  0  0  0
   -1.1391   -4.4346    0.0000 C   0  0  0  0  0  0  0  0  0  0  0  0
   -1.4747   -3.6809    0.0000 C   0  0  0  0  0  0  0  0  0  0  0  0
   -0.9898   -3.0134    0.0000 C   0  0  0  0  0  0  0  0  0  0  0  0
    2.1802   -1.3927    0.0000 N   0  0  0  0  0  0  0  0  0  0  0  0
    2.3517   -0.5857    0.0000 C   0  0  0  0  0  0  0  0  0  0  0  0
    2.7933   -1.9447    0.0000 C   0  0  0  0  0  0  0  0  0  0  0  0
  1  2  1  0
  2  3  2  0
  3  4  1  0
  4  5  2  0
  4  6  1  0
  6  7  1  0
  2  7  1  0
  7  8  1  0
  6  9  1  0
  9 10  2  0
 10 11  1  0
 11 12  2  0
 12 13  1  0
 13 14  2  0
  9 14  1  0
  3 15  1  0
 15 16  1  0
 15 17  1  0
M  END
>  <name>  (201) 
aminophenazone

>  <logBB>  (201) 
0

>  <logBB_class>  (201) 
0

>  <HAC>  (201) 
17

$$$$
MolID_84
     RDKit          2D

 17 18  0  0  0  0  0  0  0  0999 V2000
    1.5227   -1.2375    0.0000 C   0  0  0  0  0  0  0  0  0  0  0  0
    0.6977   -1.2375    0.0000 C   0  0  0  0  0  0  0  0  0  0  0  0
   -0.1273   -1.2375    0.0000 C   0  0  0  0  0  0  0  0  0  0  0  0
    0.6977   -2.0625    0.0000 C   0  0  0  0  0  0  0  0  0  0  0  0
    1.4121   -2.4750    0.0000 C   0  0  0  0  0  0  0  0  0  0  0  0
    1.4121   -3.3000    0.0000 C   0  0  0  0  0  0  0  0  0  0  0  0
    0.6977   -3.7125    0.0000 C   0  0  0  0  0  0  0  0  0  0  0  0
   -0.0168   -3.3000    0.0000 C   0  0  0  0  0  0  0  0  0  0  0  0
   -0.0168   -2.4750    0.0000 C   0  0  0  0  0  0  0  0  0  0  0  0
    0.6977   -4.5375    0.0000 O   0  0  0  0  0  0  0  0  0  0  0  0
    0.6977   -0.4125    0.0000 C   0  0  0  0  0  0  0  0  0  0  0  0
   -0.0168    0.0000    0.0000 C   0  0  0  0  0  0  0  0  0  0  0  0
   -0.0168    0.8250    0.0000 C   0  0  0  0  0  0  0  0  0  0  0  0
    0.6977    1.2375    0.0000 C   0  0  0  0  0  0  0  0  0  0  0  0
    1.4121    0.8250    0.0000 C   0  0  0  0  0  0  0  0  0  0  0  0
    1.4121    0.0000    0.0000 C   0  0  0  0  0  0  0  0  0  0  0  0
    0.6977    2.0625    0.0000 O   0  0  0  0  0  0  0  0  0  0  0  0
  1  2  1  0
  2  3  1  0
  2  4  1  0
  4  5  2  0
  5  6  1  0
  6  7  2  0
  7  8  1  0
  8  9  2  0
  4  9  1  0
  7 10  1  0
  2 11  1  0
 11 12  2  0
 12 13  1  0
 13 14  2  0
 14 15  1  0
 15 16  2  0
 11 16  1  0
 14 17  1  0
M  END
>  <name>  (202) 
bisphenolA

>  <logBB>  (202) 
-0.12

>  <logBB_class>  (202) 
0

>  <HAC>  (202) 
17

$$$$
MolID_116
     RDKit          2D

 17 18  0  0  0  0  0  0  0  0999 V2000
    0.7145   -1.2375    0.0000 C   0  0  0  0  0  0  0  0  0  0  0  0
    1.4289   -1.6500    0.0000 C   0  0  0  0  0  0  0  0  0  0  0  0
    1.4289   -2.4750    0.0000 N   0  0  0  0  0  0  0  0  0  0  0  0
    0.7145   -2.8875    0.0000 C   0  0  0  0  0  0  0  0  0  0  0  0
    0.0000   -2.4750    0.0000 C   0  0  0  0  0  0  0  0  0  0  0  0
    0.0000   -1.6500    0.0000 N   0  0  0  0  0  0  0  0  0  0  0  0
    2.1434   -2.8875    0.0000 C   0  0  0  0  0  0  0  0  0  0  0  0
    2.8579   -2.4750    0.0000 N   0  0  0  0  0  0  0  0  0  0  0  0
    3.5724   -2.8875    0.0000 C   0  0  0  0  0  0  0  0  0  0  0  0
    3.5724   -3.7125    0.0000 C   0  0  0  0  0  0  0  0  0  0  0  0
    2.8579   -4.1250    0.0000 C   0  0  0  0  0  0  0  0  0  0  0  0
    2.1434   -3.7125    0.0000 C   0  0  0  0  0  0  0  0  0  0  0  0
    4.2868   -4.1250    0.0000 C   0  0  0  0  0  0  0  0  0  0  0  0
    5.0013   -4.5375    0.0000 F   0  0  0  0  0  0  0  0  0  0  0  0
    3.8743   -4.8395    0.0000 F   0  0  0  0  0  0  0  0  0  0  0  0
    4.6993   -3.4105    0.0000 F   0  0  0  0  0  0  0  0  0  0  0  0
    4.2868   -2.4750    0.0000 Cl  0  0  0  0  0  0  0  0  0  0  0  0
  1  2  1  0
  2  3  1  0
  3  4  1  0
  4  5  1  0
  5  6  1  0
  1  6  1  0
  3  7  1  0
  7  8  2  0
  8  9  1  0
  9 10  2  0
 10 11  1  0
 11 12  2  0
  7 12  1  0
 10 13  1  0
 13 14  1  0
 13 15  1  0
 13 16  1  0
  9 17  1  0
M  END
>  <name>  (203) 
CHEBI568657

>  <logBB>  (203) 
1.64

>  <logBB_class>  (203) 
1

>  <HAC>  (203) 
17

$$$$
MolID_141
     RDKit          2D

 17 19  0  0  0  0  0  0  0  0999 V2000
   -0.4219    2.1596    0.0000 C   0  0  0  0  0  0  0  0  0  0  0  0
    0.0630    1.4922    0.0000 C   0  0  0  0  0  0  0  0  0  0  0  0
   -0.4219    0.8247    0.0000 C   0  0  0  0  0  0  0  0  0  0  0  0
   -1.2065    1.0797    0.0000 O   0  0  0  0  0  0  0  0  0  0  0  0
   -1.2065    1.9047    0.0000 C   0  0  0  0  0  0  0  0  0  0  0  0
   -1.8740    2.3896    0.0000 C   0  0  0  0  0  0  0  0  0  0  0  0
   -1.7877    3.2101    0.0000 O   0  0  0  0  0  0  0  0  0  0  0  0
   -0.1670    0.0401    0.0000 N   0  0  0  0  0  0  0  0  0  0  0  0
   -0.6519   -0.6273    0.0000 C   0  0  0  0  0  0  0  0  0  0  0  0
   -0.1670   -1.2948    0.0000 N   0  0  0  0  0  0  0  0  0  0  0  0
    0.6177   -1.0398    0.0000 C   0  0  0  0  0  0  0  0  0  0  0  0
    0.6177   -0.2148    0.0000 C   0  0  0  0  0  0  0  0  0  0  0  0
    1.3321    0.1977    0.0000 N   0  0  0  0  0  0  0  0  0  0  0  0
    2.0466   -0.2148    0.0000 C   0  0  0  0  0  0  0  0  0  0  0  0
    2.0466   -1.0398    0.0000 N   0  0  0  0  0  0  0  0  0  0  0  0
    1.3321   -1.4523    0.0000 C   0  0  0  0  0  0  0  0  0  0  0  0
    1.3321   -2.2773    0.0000 O   0  0  0  0  0  0  0  0  0  0  0  0
  1  2  1  0
  2  3  1  0
  3  4  1  0
  4  5  1  0
  1  5  1  0
  5  6  1  0
  6  7  1  0
  3  8  1  0
  8  9  1  0
  9 10  2  0
 10 11  1  0
 11 12  2  0
  8 12  1  0
 12 13  1  0
 13 14  2  0
 14 15  1  0
 15 16  1  0
 11 16  1  0
 16 17  2  0
M  END
>  <name>  (204) 
didanosine

>  <logBB>  (204) 
-1.3

>  <logBB_class>  (204) 
0

>  <HAC>  (204) 
17

$$$$
MolID_177
     RDKit          2D

 17 18  0  0  0  0  0  0  0  0999 V2000
    0.7790   -0.4300    0.0000 C   0  0  0  0  0  0  0  0  0  0  0  0
    1.3093   -1.0620    0.0000 C   0  0  0  0  0  0  0  0  0  0  0  0
    2.0238   -1.4745    0.0000 C   0  0  0  0  0  0  0  0  0  0  0  0
    2.7382   -1.0620    0.0000 O   0  0  0  0  0  0  0  0  0  0  0  0
    2.0238   -2.2995    0.0000 N   0  0  0  0  0  0  0  0  0  0  0  0
    1.3093   -2.7120    0.0000 C   0  0  0  0  0  0  0  0  0  0  0  0
    1.3093   -3.5370    0.0000 O   0  0  0  0  0  0  0  0  0  0  0  0
    0.5948   -2.2995    0.0000 N   0  0  0  0  0  0  0  0  0  0  0  0
    0.5948   -1.4745    0.0000 C   0  0  0  0  0  0  0  0  0  0  0  0
   -0.1196   -1.0620    0.0000 O   0  0  0  0  0  0  0  0  0  0  0  0
   -0.1196   -2.7120    0.0000 C   0  0  0  0  0  0  0  0  0  0  0  0
    1.8396   -0.4300    0.0000 C   0  0  0  0  0  0  0  0  0  0  0  0
    1.5574    0.3452    0.0000 C   0  0  0  0  0  0  0  0  0  0  0  0
    2.0877    0.9772    0.0000 C   0  0  0  0  0  0  0  0  0  0  0  0
    2.9002    0.8339    0.0000 C   0  0  0  0  0  0  0  0  0  0  0  0
    3.1824    0.0587    0.0000 C   0  0  0  0  0  0  0  0  0  0  0  0
    2.6521   -0.5733    0.0000 C   0  0  0  0  0  0  0  0  0  0  0  0
  1  2  1  0
  2  3  1  0
  3  4  2  0
  3  5  1  0
  5  6  1  0
  6  7  2  0
  6  8  1  0
  8  9  1  0
  2  9  1  0
  9 10  2  0
  8 11  1  0
  2 12  1  0
 12 13  2  0
 13 14  1  0
 14 15  1  0
 15 16  1  0
 16 17  1  0
 12 17  1  0
M  END
>  <name>  (205) 
hexobarbital

>  <logBB>  (205) 
0.03

>  <logBB_class>  (205) 
1

>  <HAC>  (205) 
17

$$$$
MolID_194
     RDKit          2D

 17 17  0  0  0  0  0  0  0  0999 V2000
    1.9006   -1.0532    0.0000 C   0  0  0  0  0  0  0  0  0  0  0  0
    2.7256   -1.0532    0.0000 C   0  0  0  0  0  0  0  0  0  0  0  0
    3.1381   -1.7676    0.0000 N   0  0  0  0  0  0  0  0  0  0  0  0
    2.7256   -2.4821    0.0000 C   0  0  0  0  0  0  0  0  0  0  0  0
    1.9006   -2.4821    0.0000 C   0  0  0  0  0  0  0  0  0  0  0  0
    3.9631   -1.7676    0.0000 C   0  0  0  0  0  0  0  0  0  0  0  0
    4.3756   -2.4821    0.0000 C   0  0  0  0  0  0  0  0  0  0  0  0
    3.9631   -3.1966    0.0000 O   0  0  0  0  0  0  0  0  0  0  0  0
    5.2006   -2.4821    0.0000 N   0  0  0  0  0  0  0  0  0  0  0  0
    5.6131   -3.1966    0.0000 C   0  0  0  0  0  0  0  0  0  0  0  0
    6.4381   -3.1966    0.0000 C   0  0  0  0  0  0  0  0  0  0  0  0
    6.8506   -3.9110    0.0000 C   0  0  0  0  0  0  0  0  0  0  0  0
    6.4381   -4.6255    0.0000 C   0  0  0  0  0  0  0  0  0  0  0  0
    5.6131   -4.6255    0.0000 C   0  0  0  0  0  0  0  0  0  0  0  0
    5.2006   -3.9110    0.0000 C   0  0  0  0  0  0  0  0  0  0  0  0
    4.3756   -3.9110    0.0000 C   0  0  0  0  0  0  0  0  0  0  0  0
    6.8506   -2.4821    0.0000 C   0  0  0  0  0  0  0  0  0  0  0  0
  1  2  1  0
  2  3  1  0
  3  4  1  0
  4  5  1  0
  3  6  1  0
  6  7  1  0
  7  8  2  0
  7  9  1  0
  9 10  1  0
 10 11  2  0
 11 12  1  0
 12 13  2  0
 13 14  1  0
 14 15  2  0
 10 15  1  0
 15 16  1  0
 11 17  1  0
M  END
>  <name>  (206) 
lidocaine

>  <logBB>  (206) 
0.34

>  <logBB_class>  (206) 
1

>  <HAC>  (206) 
17

$$$$
MolID_48
     RDKit          2D

 18 18  0  0  0  0  0  0  0  0999 V2000
    0.3692   -3.6705    0.0000 C   0  0  0  0  0  0  0  0  0  0  0  0
    1.0836   -3.2580    0.0000 C   0  0  0  0  0  0  0  0  0  0  0  0
    1.7981   -3.6705    0.0000 C   0  0  0  0  0  0  0  0  0  0  0  0
    2.5126   -3.2580    0.0000 C   0  0  0  0  0  0  0  0  0  0  0  0
    3.2271   -3.6705    0.0000 C   0  0  0  0  0  0  0  0  0  0  0  0
    3.9415   -3.2580    0.0000 C   0  0  0  0  0  0  0  0  0  0  0  0
    4.6560   -3.6705    0.0000 C   0  0  0  0  0  0  0  0  0  0  0  0
    5.3705   -3.2580    0.0000 C   0  0  0  0  0  0  0  0  0  0  0  0
    5.9008   -2.6260    0.0000 C   0  0  0  0  0  0  0  0  0  0  0  0
    5.6186   -1.8508    0.0000 O   0  0  0  0  0  0  0  0  0  0  0  0
    6.7132   -2.7693    0.0000 N   0  0  0  0  0  0  0  0  0  0  0  0
    6.9954   -3.5445    0.0000 C   0  0  0  0  0  0  0  0  0  0  0  0
    7.8079   -3.6878    0.0000 O   0  0  0  0  0  0  0  0  0  0  0  0
    6.4651   -4.1765    0.0000 N   0  0  0  0  0  0  0  0  0  0  0  0
    5.6526   -4.0332    0.0000 C   0  0  0  0  0  0  0  0  0  0  0  0
    5.1223   -4.6652    0.0000 O   0  0  0  0  0  0  0  0  0  0  0  0
    4.8402   -2.6260    0.0000 C   0  0  0  0  0  0  0  0  0  0  0  0
    4.0277   -2.7693    0.0000 C   0  0  0  0  0  0  0  0  0  0  0  0
  1  2  1  0
  2  3  1  0
  3  4  1  0
  4  5  1  0
  5  6  1  0
  6  7  1  0
  7  8  1  0
  8  9  1  0
  9 10  2  0
  9 11  1  0
 11 12  1  0
 12 13  2  0
 12 14  1  0
 14 15  1  0
  8 15  1  0
 15 16  2  0
  8 17  1  0
 17 18  1  0
M  END
>  <name>  (207) 
5-ethyl-5-heptyl-1,3-diazinane-2,4,6-trione

>  <logBB>  (207) 
0.02

>  <logBB_class>  (207) 
1

>  <HAC>  (207) 
18

$$$$
MolID_62
     RDKit          2D

 18 18  0  0  0  0  0  0  0  0999 V2000
   -2.0834   -3.6832    0.0000 C   0  0  0  0  0  0  0  0  0  0  0  0
   -1.3689   -3.2707    0.0000 C   0  0  0  0  0  0  0  0  0  0  0  0
   -1.3689   -2.4457    0.0000 C   0  0  0  0  0  0  0  0  0  0  0  0
   -0.6544   -3.6832    0.0000 N   0  0  0  0  0  0  0  0  0  0  0  0
    0.0600   -3.2707    0.0000 C   0  0  0  0  0  0  0  0  0  0  0  0
    0.7745   -3.6832    0.0000 C   0  0  0  0  0  0  0  0  0  0  0  0
    1.4890   -3.2707    0.0000 C   0  0  0  0  0  0  0  0  0  0  0  0
    2.2035   -3.6832    0.0000 O   0  0  0  0  0  0  0  0  0  0  0  0
    2.9179   -3.2707    0.0000 C   0  0  0  0  0  0  0  0  0  0  0  0
    2.9179   -2.4457    0.0000 C   0  0  0  0  0  0  0  0  0  0  0  0
    3.6324   -2.0332    0.0000 C   0  0  0  0  0  0  0  0  0  0  0  0
    4.3469   -2.4457    0.0000 C   0  0  0  0  0  0  0  0  0  0  0  0
    4.3469   -3.2707    0.0000 C   0  0  0  0  0  0  0  0  0  0  0  0
    3.6324   -3.6832    0.0000 C   0  0  0  0  0  0  0  0  0  0  0  0
    3.6324   -4.5082    0.0000 C   0  0  0  0  0  0  0  0  0  0  0  0
    4.3469   -4.9207    0.0000 C   0  0  0  0  0  0  0  0  0  0  0  0
    5.0613   -4.5082    0.0000 C   0  0  0  0  0  0  0  0  0  0  0  0
    0.7745   -4.5082    0.0000 O   0  0  0  0  0  0  0  0  0  0  0  0
  1  2  1  0
  2  3  1  0
  2  4  1  0
  4  5  1  0
  5  6  1  0
  6  7  1  0
  7  8  1  0
  8  9  1  0
  9 10  2  0
 10 11  1  0
 11 12  2  0
 12 13  1  0
 13 14  2  0
  9 14  1  0
 14 15  1  0
 15 16  1  0
 16 17  2  0
  6 18  1  0
M  END
>  <name>  (208) 
alprenolol

>  <logBB>  (208) 
-0.23

>  <logBB_class>  (208) 
0

>  <HAC>  (208) 
18

$$$$
MolID_95
     RDKit          2D

 18 20  0  0  0  0  0  0  0  0999 V2000
    6.0845    0.8819    0.0000 C   0  0  0  0  0  0  0  0  0  0  0  0
    5.9009    1.6862    0.0000 C   0  0  0  0  0  0  0  0  0  0  0  0
    5.1125    1.9294    0.0000 C   0  0  0  0  0  0  0  0  0  0  0  0
    4.5078    1.3683    0.0000 C   0  0  0  0  0  0  0  0  0  0  0  0
    4.6913    0.5640    0.0000 C   0  0  0  0  0  0  0  0  0  0  0  0
    5.4797    0.3208    0.0000 C   0  0  0  0  0  0  0  0  0  0  0  0
    4.1770   -0.0811    0.0000 C   0  0  0  0  0  0  0  0  0  0  0  0
    3.3520   -0.0811    0.0000 C   0  0  0  0  0  0  0  0  0  0  0  0
    2.8376    0.5640    0.0000 C   0  0  0  0  0  0  0  0  0  0  0  0
    2.0492    0.3208    0.0000 C   0  0  0  0  0  0  0  0  0  0  0  0
    1.4445    0.8819    0.0000 C   0  0  0  0  0  0  0  0  0  0  0  0
    1.6280    1.6862    0.0000 C   0  0  0  0  0  0  0  0  0  0  0  0
    2.4164    1.9294    0.0000 C   0  0  0  0  0  0  0  0  0  0  0  0
    3.0212    1.3683    0.0000 C   0  0  0  0  0  0  0  0  0  0  0  0
    3.7645    1.7262    0.0000 N   0  0  0  0  0  0  0  0  0  0  0  0
    3.7645    2.5512    0.0000 C   0  0  0  0  0  0  0  0  0  0  0  0
    4.4789    2.9637    0.0000 O   0  0  0  0  0  0  0  0  0  0  0  0
    3.0500    2.9637    0.0000 N   0  0  0  0  0  0  0  0  0  0  0  0
  1  2  2  0
  2  3  1  0
  3  4  2  0
  4  5  1  0
  5  6  2  0
  1  6  1  0
  5  7  1  0
  7  8  2  0
  8  9  1  0
  9 10  2  0
 10 11  1  0
 11 12  2  0
 12 13  1  0
 13 14  2  0
  9 14  1  0
 14 15  1  0
  4 15  1  0
 15 16  1  0
 16 17  2  0
 16 18  1  0
M  END
>  <name>  (209) 
carbamazepine

>  <logBB>  (209) 
-0.04

>  <logBB_class>  (209) 
0

>  <HAC>  (209) 
18

$$$$
MolID_108
     RDKit          2D

 18 19  0  0  0  0  0  0  0  0999 V2000
   -6.4429    1.2473    0.0000 C   0  0  0  0  0  0  0  0  0  0  0  0
   -6.4429    2.0723    0.0000 C   0  0  0  0  0  0  0  0  0  0  0  0
   -5.7284    2.4848    0.0000 C   0  0  0  0  0  0  0  0  0  0  0  0
   -5.0139    2.0723    0.0000 N   0  0  0  0  0  0  0  0  0  0  0  0
   -5.0139    1.2473    0.0000 C   0  0  0  0  0  0  0  0  0  0  0  0
   -5.7284    0.8348    0.0000 C   0  0  0  0  0  0  0  0  0  0  0  0
   -4.2994    2.4848    0.0000 C   0  0  0  0  0  0  0  0  0  0  0  0
   -3.5850    2.0723    0.0000 C   0  0  0  0  0  0  0  0  0  0  0  0
   -2.8705    2.4848    0.0000 C   0  0  0  0  0  0  0  0  0  0  0  0
   -2.1560    2.0723    0.0000 C   0  0  0  0  0  0  0  0  0  0  0  0
   -2.1560    1.2473    0.0000 C   0  0  0  0  0  0  0  0  0  0  0  0
   -2.8705    0.8348    0.0000 C   0  0  0  0  0  0  0  0  0  0  0  0
   -3.5850    1.2473    0.0000 C   0  0  0  0  0  0  0  0  0  0  0  0
   -1.4416    2.4848    0.0000 O   0  0  0  0  0  0  0  0  0  0  0  0
   -0.7271    2.0723    0.0000 C   0  0  0  0  0  0  0  0  0  0  0  0
   -0.0126    2.4848    0.0000 C   0  0  0  0  0  0  0  0  0  0  0  0
    0.7018    2.0723    0.0000 C   0  0  0  0  0  0  0  0  0  0  0  0
    1.4163    2.4848    0.0000 O   0  0  0  0  0  0  0  0  0  0  0  0
  1  2  1  0
  2  3  1  0
  3  4  1  0
  4  5  1  0
  5  6  1  0
  1  6  1  0
  4  7  1  0
  7  8  1  0
  8  9  2  0
  9 10  1  0
 10 11  2  0
 11 12  1  0
 12 13  2  0
  8 13  1  0
 10 14  1  0
 14 15  1  0
 15 16  1  0
 16 17  1  0
 17 18  1  0
M  END
>  <name>  (210) 
CHEBI338140

>  <logBB>  (210) 
-0.02

>  <logBB_class>  (210) 
0

>  <HAC>  (210) 
18

$$$$
MolID_121
     RDKit          2D

 18 20  0  0  0  0  0  0  0  0999 V2000
   -1.8659   -1.4124    0.0000 C   0  0  0  0  0  0  0  0  0  0  0  0
   -2.6909   -1.4124    0.0000 C   0  0  0  0  0  0  0  0  0  0  0  0
   -3.1034   -0.6979    0.0000 C   0  0  0  0  0  0  0  0  0  0  0  0
   -2.6909    0.0166    0.0000 C   0  0  0  0  0  0  0  0  0  0  0  0
   -1.8659    0.0166    0.0000 C   0  0  0  0  0  0  0  0  0  0  0  0
   -1.4534   -0.6979    0.0000 C   0  0  0  0  0  0  0  0  0  0  0  0
   -0.6284   -0.6979    0.0000 C   0  0  0  0  0  0  0  0  0  0  0  0
   -0.1435   -1.3653    0.0000 N   0  0  0  0  0  0  0  0  0  0  0  0
    0.6411   -1.1104    0.0000 C   0  0  0  0  0  0  0  0  0  0  0  0
    0.6411   -0.2854    0.0000 C   0  0  0  0  0  0  0  0  0  0  0  0
   -0.1435   -0.0305    0.0000 S   0  0  0  0  0  0  0  0  0  0  0  0
    1.3556    0.1271    0.0000 C   0  0  0  0  0  0  0  0  0  0  0  0
    2.0701   -0.2854    0.0000 C   0  0  0  0  0  0  0  0  0  0  0  0
    2.0701   -1.1104    0.0000 C   0  0  0  0  0  0  0  0  0  0  0  0
    1.3556   -1.5229    0.0000 C   0  0  0  0  0  0  0  0  0  0  0  0
    2.7845    0.1271    0.0000 O   0  0  0  0  0  0  0  0  0  0  0  0
   -3.1034    0.7310    0.0000 I   0  0  0  0  0  0  0  0  0  0  0  0
   -3.9284   -0.6979    0.0000 N   0  0  0  0  0  0  0  0  0  0  0  0
  1  2  2  0
  2  3  1  0
  3  4  2  0
  4  5  1  0
  5  6  2  0
  1  6  1  0
  6  7  1  0
  7  8  2  0
  8  9  1  0
  9 10  2  0
 10 11  1  0
  7 11  1  0
 10 12  1  0
 12 13  2  0
 13 14  1  0
 14 15  2  0
  9 15  1  0
 13 16  1  0
  4 17  1  0
  3 18  1  0
M  END
>  <name>  (211) 
CID10451635

>  <logBB>  (211) 
0.18

>  <logBB_class>  (211) 
1

>  <HAC>  (211) 
18

$$$$
MolID_118
     RDKit          2D

 19 19  0  0  0  0  0  0  0  0999 V2000
   -2.0303   -2.0486    0.0000 C   0  0  0  0  0  0  0  0  0  0  0  0
   -2.0303   -1.2236    0.0000 C   0  0  0  0  0  0  0  0  0  0  0  0
   -1.3159   -0.8111    0.0000 C   0  0  0  0  0  0  0  0  0  0  0  0
   -0.6014   -1.2236    0.0000 C   0  0  0  0  0  0  0  0  0  0  0  0
   -0.6014   -2.0486    0.0000 C   0  0  0  0  0  0  0  0  0  0  0  0
   -1.3159   -2.4611    0.0000 C   0  0  0  0  0  0  0  0  0  0  0  0
   -1.3159   -3.2861    0.0000 C   0  0  0  0  0  0  0  0  0  0  0  0
   -0.6014   -3.6986    0.0000 C   0  0  0  0  0  0  0  0  0  0  0  0
   -0.6014   -4.5236    0.0000 C   0  0  0  0  0  0  0  0  0  0  0  0
    0.1131   -4.9361    0.0000 C   0  0  0  0  0  0  0  0  0  0  0  0
    0.1131   -5.7611    0.0000 O   0  0  0  0  0  0  0  0  0  0  0  0
    0.8276   -4.5236    0.0000 O   0  0  0  0  0  0  0  0  0  0  0  0
   -1.3159    0.0139    0.0000 N   0  0  0  0  0  0  0  0  0  0  0  0
   -2.0303    0.4264    0.0000 C   0  0  0  0  0  0  0  0  0  0  0  0
   -2.0303    1.2514    0.0000 C   0  0  0  0  0  0  0  0  0  0  0  0
   -2.7448    1.6639    0.0000 Cl  0  0  0  0  0  0  0  0  0  0  0  0
   -0.6014    0.4264    0.0000 C   0  0  0  0  0  0  0  0  0  0  0  0
   -0.6014    1.2514    0.0000 C   0  0  0  0  0  0  0  0  0  0  0  0
    0.1131    1.6639    0.0000 Cl  0  0  0  0  0  0  0  0  0  0  0  0
  1  2  2  0
  2  3  1  0
  3  4  2  0
  4  5  1  0
  5  6  2  0
  1  6  1  0
  6  7  1  0
  7  8  1  0
  8  9  1  0
  9 10  1  0
 10 11  1  0
 10 12  2  0
  3 13  1  0
 13 14  1  0
 14 15  1  0
 15 16  1  0
 13 17  1  0
 17 18  1  0
 18 19  1  0
M  END
>  <name>  (212) 
chlorambucil

>  <logBB>  (212) 
-1.7

>  <logBB_class>  (212) 
0

>  <HAC>  (212) 
19

$$$$
MolID_2
     RDKit          2D

 19 20  0  0  0  0  0  0  0  0999 V2000
    0.6078    6.0027    0.0000 C   0  0  0  0  0  0  0  0  0  0  0  0
    1.3223    5.5902    0.0000 C   0  0  0  0  0  0  0  0  0  0  0  0
    2.0367    6.0027    0.0000 O   0  0  0  0  0  0  0  0  0  0  0  0
    1.3223    4.7652    0.0000 N   0  0  0  0  0  0  0  0  0  0  0  0
    2.0367    4.3527    0.0000 C   0  0  0  0  0  0  0  0  0  0  0  0
    2.7512    4.7652    0.0000 C   0  0  0  0  0  0  0  0  0  0  0  0
    3.4657    4.3527    0.0000 C   0  0  0  0  0  0  0  0  0  0  0  0
    3.4657    3.5277    0.0000 C   0  0  0  0  0  0  0  0  0  0  0  0
    2.7512    3.1152    0.0000 C   0  0  0  0  0  0  0  0  0  0  0  0
    2.0367    3.5277    0.0000 C   0  0  0  0  0  0  0  0  0  0  0  0
    2.7512    2.2902    0.0000 C   0  0  0  0  0  0  0  0  0  0  0  0
    3.4186    1.8053    0.0000 C   0  0  0  0  0  0  0  0  0  0  0  0
    3.1637    1.0206    0.0000 S   0  0  0  0  0  0  0  0  0  0  0  0
    2.3387    1.0206    0.0000 C   0  0  0  0  0  0  0  0  0  0  0  0
    1.8538    0.3532    0.0000 N   0  0  0  0  0  0  0  0  0  0  0  0
    1.0333    0.4394    0.0000 C   0  0  0  0  0  0  0  0  0  0  0  0
    0.5484   -0.2280    0.0000 N   0  0  0  0  0  0  0  0  0  0  0  0
    0.6977    1.1931    0.0000 N   0  0  0  0  0  0  0  0  0  0  0  0
    2.0838    1.8053    0.0000 N   0  0  0  0  0  0  0  0  0  0  0  0
  1  2  1  0
  2  3  2  0
  2  4  1  0
  4  5  1  0
  5  6  2  0
  6  7  1  0
  7  8  2  0
  8  9  1  0
  9 10  2  0
  5 10  1  0
  9 11  1  0
 11 12  2  0
 12 13  1  0
 13 14  1  0
 15 14  1  0
 15 16  1  0
 16 17  2  0
 16 18  1  0
 14 19  2  0
 11 19  1  0
M  END
>  <name>  (213) 
12

>  <logBB>  (213) 
-1.57

>  <logBB_class>  (213) 
0

>  <HAC>  (213) 
19

$$$$
MolID_9
     RDKit          2D

 19 19  0  0  0  0  0  0  0  0999 V2000
   -0.7145   -3.7125    0.0000 C   0  0  0  0  0  0  0  0  0  0  0  0
    0.0000   -4.1250    0.0000 C   0  0  0  0  0  0  0  0  0  0  0  0
    0.7145   -3.7125    0.0000 N   0  0  0  0  0  0  0  0  0  0  0  0
    1.4289   -4.1250    0.0000 C   0  0  0  0  0  0  0  0  0  0  0  0
    2.1434   -3.7125    0.0000 N   0  0  0  0  0  0  0  0  0  0  0  0
    2.8579   -4.1250    0.0000 C   0  0  0  0  0  0  0  0  0  0  0  0
    3.5724   -3.7125    0.0000 C   0  0  0  0  0  0  0  0  0  0  0  0
    4.2868   -4.1250    0.0000 S   0  0  0  0  0  0  0  0  0  0  0  0
    5.0013   -3.7125    0.0000 C   0  0  0  0  0  0  0  0  0  0  0  0
    5.7158   -4.1250    0.0000 C   0  0  0  0  0  0  0  0  0  0  0  0
    6.4302   -3.7125    0.0000 N   0  0  0  0  0  0  0  0  0  0  0  0
    7.1447   -4.1250    0.0000 C   0  0  0  0  0  0  0  0  0  0  0  0
    7.1447   -4.9500    0.0000 C   0  0  0  0  0  0  0  0  0  0  0  0
    6.4302   -5.3625    0.0000 C   0  0  0  0  0  0  0  0  0  0  0  0
    5.7158   -4.9500    0.0000 C   0  0  0  0  0  0  0  0  0  0  0  0
    5.0013   -5.3625    0.0000 Br  0  0  0  0  0  0  0  0  0  0  0  0
    1.4289   -4.9500    0.0000 N   0  0  0  0  0  0  0  0  0  0  0  0
    0.7145   -5.3625    0.0000 C   0  0  0  0  0  0  0  0  0  0  0  0
    0.0000   -5.7750    0.0000 N   0  0  0  0  0  0  0  0  0  0  0  0
  1  2  1  0
  3  2  1  0
  3  4  2  3
  4  5  1  0
  5  6  1  0
  6  7  1  0
  7  8  1  0
  8  9  1  0
  9 10  1  0
 10 11  2  0
 11 12  1  0
 12 13  2  0
 13 14  1  0
 14 15  2  0
 10 15  1  0
 15 16  1  0
  4 17  1  0
 17 18  1  0
 18 19  3  0
M  END
>  <name>  (214) 
30

>  <logBB>  (214) 
-2.15

>  <logBB_class>  (214) 
0

>  <HAC>  (214) 
19

$$$$
MolID_96
     RDKit          2D

 19 22  0  0  0  0  0  0  0  0999 V2000
    6.0857    0.8810    0.0000 C   0  0  0  0  0  0  0  0  0  0  0  0
    5.9021    1.6853    0.0000 C   0  0  0  0  0  0  0  0  0  0  0  0
    5.1138    1.9285    0.0000 C   0  0  0  0  0  0  0  0  0  0  0  0
    4.5090    1.3673    0.0000 C   0  0  0  0  0  0  0  0  0  0  0  0
    4.6926    0.5630    0.0000 C   0  0  0  0  0  0  0  0  0  0  0  0
    5.4809    0.3199    0.0000 C   0  0  0  0  0  0  0  0  0  0  0  0
    4.1782   -0.0820    0.0000 C   0  0  0  0  0  0  0  0  0  0  0  0
    3.3532   -0.0820    0.0000 C   0  0  0  0  0  0  0  0  0  0  0  0
    3.7657   -0.7965    0.0000 O   0  0  0  0  0  0  0  0  0  0  0  0
    2.8388    0.5630    0.0000 C   0  0  0  0  0  0  0  0  0  0  0  0
    2.0505    0.3199    0.0000 C   0  0  0  0  0  0  0  0  0  0  0  0
    1.4457    0.8810    0.0000 C   0  0  0  0  0  0  0  0  0  0  0  0
    1.6293    1.6853    0.0000 C   0  0  0  0  0  0  0  0  0  0  0  0
    2.4177    1.9285    0.0000 C   0  0  0  0  0  0  0  0  0  0  0  0
    3.0224    1.3673    0.0000 C   0  0  0  0  0  0  0  0  0  0  0  0
    3.7657    1.7253    0.0000 N   0  0  0  0  0  0  0  0  0  0  0  0
    3.7657    2.5503    0.0000 C   0  0  0  0  0  0  0  0  0  0  0  0
    4.4802    2.9628    0.0000 O   0  0  0  0  0  0  0  0  0  0  0  0
    3.0512    2.9628    0.0000 N   0  0  0  0  0  0  0  0  0  0  0  0
  1  2  2  0
  2  3  1  0
  3  4  2  0
  4  5  1  0
  5  6  2  0
  1  6  1  0
  5  7  1  0
  7  8  1  0
  8  9  1  0
  7  9  1  0
  8 10  1  0
 10 11  2  0
 11 12  1  0
 12 13  2  0
 13 14  1  0
 14 15  2  0
 10 15  1  0
 15 16  1  0
  4 16  1  0
 16 17  1  0
 17 18  2  0
 17 19  1  0
M  END
>  <name>  (215) 
carbamazepineepoxide

>  <logBB>  (215) 
-0.34

>  <logBB_class>  (215) 
0

>  <HAC>  (215) 
19

$$$$
MolID_98
     RDKit          2D

 19 22  0  0  0  0  0  0  0  0999 V2000
    3.0110    1.5777    0.0000 N   0  0  0  0  0  0  0  0  0  0  0  0
    3.7255    1.1652    0.0000 C   0  0  0  0  0  0  0  0  0  0  0  0
    3.7255    0.3402    0.0000 N   0  0  0  0  0  0  0  0  0  0  0  0
    4.4688   -0.0178    0.0000 C   0  0  0  0  0  0  0  0  0  0  0  0
    5.0735    0.5433    0.0000 C   0  0  0  0  0  0  0  0  0  0  0  0
    5.8619    0.3002    0.0000 C   0  0  0  0  0  0  0  0  0  0  0  0
    6.0454   -0.5041    0.0000 C   0  0  0  0  0  0  0  0  0  0  0  0
    5.4407   -1.0653    0.0000 C   0  0  0  0  0  0  0  0  0  0  0  0
    4.6523   -0.8221    0.0000 C   0  0  0  0  0  0  0  0  0  0  0  0
    4.1380   -1.4671    0.0000 C   0  0  0  0  0  0  0  0  0  0  0  0
    3.7255   -2.1816    0.0000 C   0  0  0  0  0  0  0  0  0  0  0  0
    3.3130   -1.4671    0.0000 C   0  0  0  0  0  0  0  0  0  0  0  0
    2.7986   -0.8221    0.0000 C   0  0  0  0  0  0  0  0  0  0  0  0
    2.0102   -1.0653    0.0000 C   0  0  0  0  0  0  0  0  0  0  0  0
    1.4055   -0.5041    0.0000 C   0  0  0  0  0  0  0  0  0  0  0  0
    1.5890    0.3002    0.0000 C   0  0  0  0  0  0  0  0  0  0  0  0
    2.3774    0.5433    0.0000 C   0  0  0  0  0  0  0  0  0  0  0  0
    2.9822   -0.0178    0.0000 C   0  0  0  0  0  0  0  0  0  0  0  0
    4.4399    1.5777    0.0000 O   0  0  0  0  0  0  0  0  0  0  0  0
  1  2  1  0
  2  3  1  0
  3  4  1  0
  4  5  2  0
  5  6  1  0
  6  7  2  0
  7  8  1  0
  8  9  2  0
  4  9  1  0
  9 10  1  0
 10 11  1  0
 11 12  1  0
 10 12  1  0
 12 13  1  0
 13 14  2  0
 14 15  1  0
 15 16  2  0
 16 17  1  0
 17 18  2  0
  3 18  1  0
 13 18  1  0
  2 19  2  0
M  END
>  <name>  (216) 
CBZ-EPO

>  <logBB>  (216) 
-0.34

>  <logBB_class>  (216) 
0

>  <HAC>  (216) 
19

$$$$
MolID_133
     RDKit          2D

 19 21  0  0  0  0  0  0  0  0999 V2000
   -3.5724    1.2375    0.0000 O   0  0  0  0  0  0  0  0  0  0  0  0
   -2.8579    0.8250    0.0000 C   0  0  0  0  0  0  0  0  0  0  0  0
   -2.1434    1.2375    0.0000 C   0  0  0  0  0  0  0  0  0  0  0  0
   -1.4289    0.8250    0.0000 C   0  0  0  0  0  0  0  0  0  0  0  0
   -1.4289    0.0000    0.0000 C   0  0  0  0  0  0  0  0  0  0  0  0
   -0.7145   -0.4125    0.0000 C   0  0  0  0  0  0  0  0  0  0  0  0
   -0.7145   -1.2375    0.0000 C   0  0  0  0  0  0  0  0  0  0  0  0
    0.0000   -1.6500    0.0000 O   0  0  0  0  0  0  0  0  0  0  0  0
    0.7145   -1.2375    0.0000 C   0  0  0  0  0  0  0  0  0  0  0  0
    0.7145   -0.4125    0.0000 C   0  0  0  0  0  0  0  0  0  0  0  0
    0.0000    0.0000    0.0000 C   0  0  0  0  0  0  0  0  0  0  0  0
    0.0000    0.8250    0.0000 O   0  0  0  0  0  0  0  0  0  0  0  0
    1.4289    0.0000    0.0000 C   0  0  0  0  0  0  0  0  0  0  0  0
    2.1434   -0.4125    0.0000 C   0  0  0  0  0  0  0  0  0  0  0  0
    2.1434   -1.2375    0.0000 C   0  0  0  0  0  0  0  0  0  0  0  0
    2.8579   -1.6500    0.0000 O   0  0  0  0  0  0  0  0  0  0  0  0
    1.4289   -1.6500    0.0000 C   0  0  0  0  0  0  0  0  0  0  0  0
   -2.1434   -0.4125    0.0000 C   0  0  0  0  0  0  0  0  0  0  0  0
   -2.8579    0.0000    0.0000 C   0  0  0  0  0  0  0  0  0  0  0  0
  1  2  1  0
  2  3  2  0
  3  4  1  0
  4  5  2  0
  5  6  1  0
  6  7  2  0
  7  8  1  0
  8  9  1  0
  9 10  2  0
 10 11  1  0
  6 11  1  0
 11 12  2  0
 10 13  1  0
 13 14  2  0
 14 15  1  0
 15 16  1  0
 15 17  2  0
  9 17  1  0
  5 18  1  0
 18 19  2  0
  2 19  1  0
M  END
>  <name>  (217) 
daidzein

>  <logBB>  (217) 
-0.15

>  <logBB_class>  (217) 
0

>  <HAC>  (217) 
19

$$$$
MolID_137
     RDKit          2D

 19 21  0  0  0  0  0  0  0  0999 V2000
    1.1514   -2.8390    0.0000 Cl  0  0  0  0  0  0  0  0  0  0  0  0
    1.1514   -2.0140    0.0000 C   0  0  0  0  0  0  0  0  0  0  0  0
    0.4370   -1.6015    0.0000 C   0  0  0  0  0  0  0  0  0  0  0  0
    0.4370   -0.7765    0.0000 C   0  0  0  0  0  0  0  0  0  0  0  0
    1.1514   -0.3640    0.0000 C   0  0  0  0  0  0  0  0  0  0  0  0
    1.8659   -0.7765    0.0000 C   0  0  0  0  0  0  0  0  0  0  0  0
    2.5109   -0.2621    0.0000 N   0  0  0  0  0  0  0  0  0  0  0  0
    1.8659   -1.6015    0.0000 C   0  0  0  0  0  0  0  0  0  0  0  0
    2.5109   -2.1159    0.0000 C   0  0  0  0  0  0  0  0  0  0  0  0
    2.3273   -2.9202    0.0000 C   0  0  0  0  0  0  0  0  0  0  0  0
    2.9321   -3.4813    0.0000 C   0  0  0  0  0  0  0  0  0  0  0  0
    2.7485   -4.2856    0.0000 C   0  0  0  0  0  0  0  0  0  0  0  0
    1.9602   -4.5288    0.0000 C   0  0  0  0  0  0  0  0  0  0  0  0
    1.3554   -3.9677    0.0000 C   0  0  0  0  0  0  0  0  0  0  0  0
    1.5390   -3.1634    0.0000 C   0  0  0  0  0  0  0  0  0  0  0  0
    3.3152   -1.9323    0.0000 N   0  0  0  0  0  0  0  0  0  0  0  0
    3.6732   -1.1890    0.0000 C   0  0  0  0  0  0  0  0  0  0  0  0
    3.3152   -0.4457    0.0000 C   0  0  0  0  0  0  0  0  0  0  0  0
    3.8296    0.1993    0.0000 O   0  0  0  0  0  0  0  0  0  0  0  0
  1  2  1  0
  2  3  2  0
  3  4  1  0
  4  5  2  0
  5  6  1  0
  6  7  1  0
  2  8  1  0
  6  8  2  0
  8  9  1  0
  9 10  1  0
 10 11  2  0
 11 12  1  0
 12 13  2  0
 13 14  1  0
 14 15  2  0
 10 15  1  0
  9 16  2  0
 16 17  1  0
 17 18  1  0
  7 18  1  0
 18 19  2  0
M  END
>  <name>  (218) 
Desmethyldiazepam

>  <logBB>  (218) 
0.5

>  <logBB_class>  (218) 
1

>  <HAC>  (218) 
19

$$$$
MolID_138
     RDKit          2D

 19 21  0  0  0  0  0  0  0  0999 V2000
    2.1454    1.2548    0.0000 C   0  0  0  0  0  0  0  0  0  0  0  0
    2.8599    0.8423    0.0000 N   0  0  0  0  0  0  0  0  0  0  0  0
    3.5743    1.2548    0.0000 C   0  0  0  0  0  0  0  0  0  0  0  0
    4.2888    0.8423    0.0000 C   0  0  0  0  0  0  0  0  0  0  0  0
    5.0033    1.2548    0.0000 C   0  0  0  0  0  0  0  0  0  0  0  0
    5.7178    0.8423    0.0000 N   0  0  0  0  0  0  0  0  0  0  0  0
    6.4322    1.2548    0.0000 C   0  0  0  0  0  0  0  0  0  0  0  0
    6.4322    2.0798    0.0000 C   0  0  0  0  0  0  0  0  0  0  0  0
    7.1467    2.4923    0.0000 C   0  0  0  0  0  0  0  0  0  0  0  0
    7.8612    2.0798    0.0000 C   0  0  0  0  0  0  0  0  0  0  0  0
    7.8612    1.2548    0.0000 C   0  0  0  0  0  0  0  0  0  0  0  0
    7.1467    0.8423    0.0000 C   0  0  0  0  0  0  0  0  0  0  0  0
    7.1467    0.0173    0.0000 S   0  0  0  0  0  0  0  0  0  0  0  0
    6.4322   -0.3952    0.0000 C   0  0  0  0  0  0  0  0  0  0  0  0
    6.4322   -1.2202    0.0000 C   0  0  0  0  0  0  0  0  0  0  0  0
    5.7178   -1.6327    0.0000 C   0  0  0  0  0  0  0  0  0  0  0  0
    5.0033   -1.2202    0.0000 C   0  0  0  0  0  0  0  0  0  0  0  0
    5.0033   -0.3952    0.0000 C   0  0  0  0  0  0  0  0  0  0  0  0
    5.7178    0.0173    0.0000 C   0  0  0  0  0  0  0  0  0  0  0  0
  1  2  1  0
  2  3  1  0
  3  4  1  0
  4  5  1  0
  5  6  1  0
  6  7  1  0
  7  8  2  0
  8  9  1  0
  9 10  2  0
 10 11  1  0
 11 12  2  0
  7 12  1  0
 12 13  1  0
 13 14  1  0
 14 15  2  0
 15 16  1  0
 16 17  2  0
 17 18  1  0
 18 19  2  0
 14 19  1  0
  6 19  1  0
M  END
>  <name>  (219) 
desmonomethylpromazine

>  <logBB>  (219) 
0.59

>  <logBB_class>  (219) 
1

>  <HAC>  (219) 
19

$$$$
MolID_142
     RDKit          2D

 19 21  0  0  0  0  0  0  0  0999 V2000
    4.3480    0.8171    0.0000 C   0  0  0  0  0  0  0  0  0  0  0  0
    4.3480   -0.0079    0.0000 C   0  0  0  0  0  0  0  0  0  0  0  0
    3.6335   -0.4204    0.0000 C   0  0  0  0  0  0  0  0  0  0  0  0
    2.9190   -0.0079    0.0000 C   0  0  0  0  0  0  0  0  0  0  0  0
    2.9190    0.8171    0.0000 C   0  0  0  0  0  0  0  0  0  0  0  0
    3.6335    1.2296    0.0000 C   0  0  0  0  0  0  0  0  0  0  0  0
    2.2046    1.2296    0.0000 N   0  0  0  0  0  0  0  0  0  0  0  0
    1.4901    0.8171    0.0000 C   0  0  0  0  0  0  0  0  0  0  0  0
    1.4901   -0.0079    0.0000 C   0  0  0  0  0  0  0  0  0  0  0  0
    2.2046   -0.4204    0.0000 S   0  0  0  0  0  0  0  0  0  0  0  0
    0.7756   -0.4204    0.0000 C   0  0  0  0  0  0  0  0  0  0  0  0
    0.0612   -0.0079    0.0000 C   0  0  0  0  0  0  0  0  0  0  0  0
    0.0612    0.8171    0.0000 C   0  0  0  0  0  0  0  0  0  0  0  0
    0.7756    1.2296    0.0000 C   0  0  0  0  0  0  0  0  0  0  0  0
   -0.6533    1.2296    0.0000 Cl  0  0  0  0  0  0  0  0  0  0  0  0
    2.2046    2.0546    0.0000 C   0  0  0  0  0  0  0  0  0  0  0  0
    1.4901    2.4671    0.0000 C   0  0  0  0  0  0  0  0  0  0  0  0
    0.7756    2.0546    0.0000 C   0  0  0  0  0  0  0  0  0  0  0  0
    0.0612    2.4671    0.0000 N   0  0  0  0  0  0  0  0  0  0  0  0
  1  2  2  0
  2  3  1  0
  3  4  2  0
  4  5  1  0
  5  6  2  0
  1  6  1  0
  5  7  1  0
  7  8  1  0
  8  9  2  0
  9 10  1  0
  4 10  1  0
  9 11  1  0
 11 12  2  0
 12 13  1  0
 13 14  2  0
  8 14  1  0
 13 15  1  0
  7 16  1  0
 16 17  1  0
 17 18  1  0
 18 19  1  0
M  END
>  <name>  (220) 
didemethylchlorpromazine

>  <logBB>  (220) 
0.97

>  <logBB_class>  (220) 
1

>  <HAC>  (220) 
19

$$$$
MolID_143
     RDKit          2D

 19 21  0  0  0  0  0  0  0  0999 V2000
    3.4397    0.8822    0.0000 C   0  0  0  0  0  0  0  0  0  0  0  0
    4.2647    0.8822    0.0000 C   0  0  0  0  0  0  0  0  0  0  0  0
    4.7791    0.2372    0.0000 C   0  0  0  0  0  0  0  0  0  0  0  0
    5.5675    0.4804    0.0000 C   0  0  0  0  0  0  0  0  0  0  0  0
    6.1722   -0.0808    0.0000 C   0  0  0  0  0  0  0  0  0  0  0  0
    5.9886   -0.8851    0.0000 C   0  0  0  0  0  0  0  0  0  0  0  0
    5.2003   -1.1283    0.0000 C   0  0  0  0  0  0  0  0  0  0  0  0
    4.5955   -0.5671    0.0000 C   0  0  0  0  0  0  0  0  0  0  0  0
    3.8522   -0.9251    0.0000 N   0  0  0  0  0  0  0  0  0  0  0  0
    3.1089   -0.5671    0.0000 C   0  0  0  0  0  0  0  0  0  0  0  0
    2.5042   -1.1283    0.0000 C   0  0  0  0  0  0  0  0  0  0  0  0
    1.7158   -0.8851    0.0000 C   0  0  0  0  0  0  0  0  0  0  0  0
    1.5322   -0.0808    0.0000 C   0  0  0  0  0  0  0  0  0  0  0  0
    2.1370    0.4804    0.0000 C   0  0  0  0  0  0  0  0  0  0  0  0
    2.9254    0.2372    0.0000 C   0  0  0  0  0  0  0  0  0  0  0  0
    3.8522   -1.7501    0.0000 C   0  0  0  0  0  0  0  0  0  0  0  0
    4.5667   -2.1626    0.0000 C   0  0  0  0  0  0  0  0  0  0  0  0
    4.5667   -2.9876    0.0000 C   0  0  0  0  0  0  0  0  0  0  0  0
    5.2812   -3.4001    0.0000 N   0  0  0  0  0  0  0  0  0  0  0  0
  1  2  1  0
  2  3  1  0
  3  4  2  0
  4  5  1  0
  5  6  2  0
  6  7  1  0
  7  8  2  0
  3  8  1  0
  8  9  1  0
  9 10  1  0
 10 11  2  0
 11 12  1  0
 12 13  2  0
 13 14  1  0
 14 15  2  0
 10 15  1  0
  1 15  1  0
  9 16  1  0
 16 17  1  0
 17 18  1  0
 18 19  1  0
M  END
>  <name>  (221) 
didesipramine

>  <logBB>  (221) 
1.05

>  <logBB_class>  (221) 
1

>  <HAC>  (221) 
19

$$$$
MolID_144
     RDKit          2D

 19 20  0  0  0  0  0  0  0  0999 V2000
   -2.8245   -1.5835    0.0000 C   0  0  0  0  0  0  0  0  0  0  0  0
   -2.1100   -1.1710    0.0000 N   0  0  0  0  0  0  0  0  0  0  0  0
   -2.1100   -0.3460    0.0000 C   0  0  0  0  0  0  0  0  0  0  0  0
   -1.3955   -1.5835    0.0000 C   0  0  0  0  0  0  0  0  0  0  0  0
   -0.6810   -1.1710    0.0000 C   0  0  0  0  0  0  0  0  0  0  0  0
    0.0334   -1.5835    0.0000 O   0  0  0  0  0  0  0  0  0  0  0  0
    0.7479   -1.1710    0.0000 C   0  0  0  0  0  0  0  0  0  0  0  0
    1.4624   -1.5835    0.0000 C   0  0  0  0  0  0  0  0  0  0  0  0
    2.1768   -1.1710    0.0000 C   0  0  0  0  0  0  0  0  0  0  0  0
    2.8913   -1.5835    0.0000 C   0  0  0  0  0  0  0  0  0  0  0  0
    2.8913   -2.4085    0.0000 C   0  0  0  0  0  0  0  0  0  0  0  0
    2.1768   -2.8210    0.0000 C   0  0  0  0  0  0  0  0  0  0  0  0
    1.4624   -2.4085    0.0000 C   0  0  0  0  0  0  0  0  0  0  0  0
    0.7479   -0.3460    0.0000 C   0  0  0  0  0  0  0  0  0  0  0  0
    0.0334    0.0665    0.0000 C   0  0  0  0  0  0  0  0  0  0  0  0
    0.0334    0.8915    0.0000 C   0  0  0  0  0  0  0  0  0  0  0  0
    0.7479    1.3040    0.0000 C   0  0  0  0  0  0  0  0  0  0  0  0
    1.4624    0.8915    0.0000 C   0  0  0  0  0  0  0  0  0  0  0  0
    1.4624    0.0665    0.0000 C   0  0  0  0  0  0  0  0  0  0  0  0
  1  2  1  0
  2  3  1  0
  2  4  1  0
  4  5  1  0
  5  6  1  0
  6  7  1  0
  7  8  1  0
  8  9  2  0
  9 10  1  0
 10 11  2  0
 11 12  1  0
 12 13  2  0
  8 13  1  0
  7 14  1  0
 14 15  2  0
 15 16  1  0
 16 17  2  0
 17 18  1  0
 18 19  2  0
 14 19  1  0
M  END
>  <name>  (222) 
diphenhydramine

>  <logBB>  (222) 
1.26

>  <logBB_class>  (222) 
1

>  <HAC>  (222) 
19

$$$$
MolID_193
     RDKit          2D

 19 22  0  0  0  0  0  0  0  0999 V2000
   -0.6636    0.8758    0.0000 C   0  0  0  0  0  0  0  0  0  0  0  0
   -0.1303    0.2463    0.0000 N   0  0  0  0  0  0  0  0  0  0  0  0
   -0.7153   -0.3805    0.0000 C   0  0  0  0  0  0  0  0  0  0  0  0
   -0.2561   -1.2729    0.0000 C   0  0  0  0  0  0  0  0  0  0  0  0
    0.4774   -1.6504    0.0000 C   0  0  0  0  0  0  0  0  0  0  0  0
   -0.1609   -2.1730    0.0000 C   0  0  0  0  0  0  0  0  0  0  0  0
   -0.9327   -1.8815    0.0000 C   0  0  0  0  0  0  0  0  0  0  0  0
   -1.0661   -1.0673    0.0000 C   0  0  0  0  0  0  0  0  0  0  0  0
   -0.4277   -0.5447    0.0000 C   0  0  0  0  0  0  0  0  0  0  0  0
    0.3441   -0.8363    0.0000 C   0  0  0  0  0  0  0  0  0  0  0  0
    0.6553    0.4980    0.0000 C   0  0  0  0  0  0  0  0  0  0  0  0
    1.3889    0.1205    0.0000 C   0  0  0  0  0  0  0  0  0  0  0  0
    1.6406   -0.6652    0.0000 C   0  0  0  0  0  0  0  0  0  0  0  0
    1.2631   -1.3987    0.0000 C   0  0  0  0  0  0  0  0  0  0  0  0
    1.7096   -2.0924    0.0000 C   0  0  0  0  0  0  0  0  0  0  0  0
    2.5336   -2.0526    0.0000 C   0  0  0  0  0  0  0  0  0  0  0  0
    2.9112   -1.3190    0.0000 C   0  0  0  0  0  0  0  0  0  0  0  0
    2.4647   -0.6253    0.0000 C   0  0  0  0  0  0  0  0  0  0  0  0
    2.9802   -2.7463    0.0000 O   0  0  0  0  0  0  0  0  0  0  0  0
  1  2  1  0
  2  3  1  0
  3  4  1  0
  4  5  1  0
  5  6  1  0
  6  7  1  0
  7  8  1  0
  8  9  1  0
  9 10  1  0
  5 10  1  0
 10 11  1  0
  2 11  1  0
 11 12  1  0
 12 13  1  0
 13 14  2  0
  5 14  1  0
 14 15  1  0
 15 16  2  0
 16 17  1  0
 17 18  2  0
 13 18  1  0
 16 19  1  0
M  END
>  <name>  (223) 
levorphanol

>  <logBB>  (223) 
0

>  <logBB_class>  (223) 
0

>  <HAC>  (223) 
19

$$$$
MolID_201
     RDKit          2D

 19 19  0  0  0  0  0  0  0  0999 V2000
   -2.1408    1.3344    0.0000 C   0  0  0  0  0  0  0  0  0  0  0  0
   -1.8586    2.1097    0.0000 C   0  0  0  0  0  0  0  0  0  0  0  0
   -1.0461    2.2529    0.0000 C   0  0  0  0  0  0  0  0  0  0  0  0
   -0.2337    2.3962    0.0000 C   0  0  0  0  0  0  0  0  0  0  0  0
    0.5788    2.5395    0.0000 C   0  0  0  0  0  0  0  0  0  0  0  0
    0.8610    3.3147    0.0000 C   0  0  0  0  0  0  0  0  0  0  0  0
    1.1091    1.9075    0.0000 C   0  0  0  0  0  0  0  0  0  0  0  0
    1.8236    1.4950    0.0000 C   0  0  0  0  0  0  0  0  0  0  0  0
    2.5380    1.9075    0.0000 O   0  0  0  0  0  0  0  0  0  0  0  0
    1.8236    0.6700    0.0000 N   0  0  0  0  0  0  0  0  0  0  0  0
    1.1091    0.2575    0.0000 C   0  0  0  0  0  0  0  0  0  0  0  0
    1.1091   -0.5675    0.0000 O   0  0  0  0  0  0  0  0  0  0  0  0
    0.3946    0.6700    0.0000 N   0  0  0  0  0  0  0  0  0  0  0  0
    0.3946    1.4950    0.0000 C   0  0  0  0  0  0  0  0  0  0  0  0
   -0.3198    1.9075    0.0000 O   0  0  0  0  0  0  0  0  0  0  0  0
   -0.3198    0.2575    0.0000 C   0  0  0  0  0  0  0  0  0  0  0  0
    1.6394    2.5395    0.0000 C   0  0  0  0  0  0  0  0  0  0  0  0
    1.3572    3.3147    0.0000 C   0  0  0  0  0  0  0  0  0  0  0  0
    1.8875    3.9467    0.0000 C   0  0  0  0  0  0  0  0  0  0  0  0
  1  2  1  0
  2  3  1  0
  3  4  3  0
  4  5  1  0
  5  6  1  0
  5  7  1  0
  7  8  1  0
  8  9  2  0
  8 10  1  0
 10 11  1  0
 11 12  2  0
 11 13  1  0
 13 14  1  0
  7 14  1  0
 14 15  2  0
 13 16  1  0
  7 17  1  0
 17 18  1  0
 18 19  2  0
M  END
>  <name>  (224) 
methohexitone

>  <logBB>  (224) 
-0.07

>  <logBB_class>  (224) 
0

>  <HAC>  (224) 
19

$$$$
MolID_205
     RDKit          2D

 19 19  0  0  0  0  0  0  0  0999 V2000
    0.6764   -3.7599    0.0000 C   0  0  0  0  0  0  0  0  0  0  0  0
    1.3909   -4.1724    0.0000 C   0  0  0  0  0  0  0  0  0  0  0  0
    1.3909   -4.9974    0.0000 C   0  0  0  0  0  0  0  0  0  0  0  0
    2.1054   -3.7599    0.0000 N   0  0  0  0  0  0  0  0  0  0  0  0
    2.8199   -4.1724    0.0000 C   0  0  0  0  0  0  0  0  0  0  0  0
    3.5343   -3.7599    0.0000 C   0  0  0  0  0  0  0  0  0  0  0  0
    4.2488   -4.1724    0.0000 C   0  0  0  0  0  0  0  0  0  0  0  0
    4.9633   -3.7599    0.0000 O   0  0  0  0  0  0  0  0  0  0  0  0
    5.6777   -4.1724    0.0000 C   0  0  0  0  0  0  0  0  0  0  0  0
    6.3922   -3.7599    0.0000 C   0  0  0  0  0  0  0  0  0  0  0  0
    7.1067   -4.1724    0.0000 C   0  0  0  0  0  0  0  0  0  0  0  0
    7.1067   -4.9974    0.0000 C   0  0  0  0  0  0  0  0  0  0  0  0
    6.3922   -5.4099    0.0000 C   0  0  0  0  0  0  0  0  0  0  0  0
    5.6777   -4.9974    0.0000 C   0  0  0  0  0  0  0  0  0  0  0  0
    7.8212   -5.4099    0.0000 C   0  0  0  0  0  0  0  0  0  0  0  0
    8.5356   -4.9974    0.0000 C   0  0  0  0  0  0  0  0  0  0  0  0
    9.2501   -5.4099    0.0000 O   0  0  0  0  0  0  0  0  0  0  0  0
    9.9646   -4.9974    0.0000 C   0  0  0  0  0  0  0  0  0  0  0  0
    3.5343   -2.9349    0.0000 O   0  0  0  0  0  0  0  0  0  0  0  0
  1  2  1  0
  2  3  1  0
  2  4  1  0
  4  5  1  0
  5  6  1  0
  6  7  1  0
  7  8  1  0
  8  9  1  0
  9 10  2  0
 10 11  1  0
 11 12  2  0
 12 13  1  0
 13 14  2  0
  9 14  1  0
 12 15  1  0
 15 16  1  0
 16 17  1  0
 17 18  1  0
  6 19  1  0
M  END
>  <name>  (225) 
metoprolol

>  <logBB>  (225) 
1.15

>  <logBB_class>  (225) 
1

>  <HAC>  (225) 
19

$$$$
MolID_1
     RDKit          2D

 20 20  0  0  0  0  0  0  0  0999 V2000
    1.4806   -4.7154    0.0000 C   0  0  0  0  0  0  0  0  0  0  0  0
    2.1951   -4.3029    0.0000 N   0  0  0  0  0  0  0  0  0  0  0  0
    2.1951   -3.4779    0.0000 C   0  0  0  0  0  0  0  0  0  0  0  0
    2.9096   -3.0654    0.0000 N   0  0  0  0  0  0  0  0  0  0  0  0
    3.6240   -3.4779    0.0000 C   0  0  0  0  0  0  0  0  0  0  0  0
    4.3385   -3.0654    0.0000 C   0  0  0  0  0  0  0  0  0  0  0  0
    5.0530   -3.4779    0.0000 S   0  0  0  0  0  0  0  0  0  0  0  0
    5.7674   -3.0654    0.0000 C   0  0  0  0  0  0  0  0  0  0  0  0
    6.4819   -3.4779    0.0000 C   0  0  0  0  0  0  0  0  0  0  0  0
    7.2356   -3.1423    0.0000 C   0  0  0  0  0  0  0  0  0  0  0  0
    7.7876   -3.7554    0.0000 S   0  0  0  0  0  0  0  0  0  0  0  0
    7.3751   -4.4699    0.0000 C   0  0  0  0  0  0  0  0  0  0  0  0
    7.7107   -5.2236    0.0000 N   0  0  0  0  0  0  0  0  0  0  0  0
    8.5312   -5.3098    0.0000 C   0  0  0  0  0  0  0  0  0  0  0  0
    8.8667   -6.0635    0.0000 N   0  0  0  0  0  0  0  0  0  0  0  0
    9.0161   -4.6424    0.0000 N   0  0  0  0  0  0  0  0  0  0  0  0
    6.5682   -4.2984    0.0000 N   0  0  0  0  0  0  0  0  0  0  0  0
    1.4806   -3.0654    0.0000 N   0  0  0  0  0  0  0  0  0  0  0  0
    0.7662   -3.4779    0.0000 C   0  0  0  0  0  0  0  0  0  0  0  0
    0.0517   -3.8904    0.0000 N   0  0  0  0  0  0  0  0  0  0  0  0
  2  1  1  0
  2  3  2  3
  3  4  1  0
  4  5  1  0
  5  6  1  0
  6  7  1  0
  7  8  1  0
  8  9  1  0
  9 10  2  0
 10 11  1  0
 11 12  1  0
 13 12  1  0
 13 14  1  0
 14 15  2  0
 14 16  1  0
 12 17  2  0
  9 17  1  0
  3 18  1  0
 18 19  1  0
 19 20  3  0
M  END
>  <name>  (226) 
6

>  <logBB>  (226) 
-0.82

>  <logBB_class>  (226) 
0

>  <HAC>  (226) 
20

$$$$
MolID_57
     RDKit          2D

 20 21  0  0  0  0  0  0  0  0999 V2000
    0.0361    0.8121    0.0000 F   0  0  0  0  0  0  0  0  0  0  0  0
    0.0361   -0.0129    0.0000 C   0  0  0  0  0  0  0  0  0  0  0  0
   -0.6783   -0.4254    0.0000 C   0  0  0  0  0  0  0  0  0  0  0  0
   -0.6783   -1.2504    0.0000 C   0  0  0  0  0  0  0  0  0  0  0  0
   -1.3928   -1.6629    0.0000 C   0  0  0  0  0  0  0  0  0  0  0  0
   -1.3928   -2.4879    0.0000 C   0  0  0  0  0  0  0  0  0  0  0  0
   -2.1073   -2.9004    0.0000 N   0  0  0  0  0  0  0  0  0  0  0  0
   -0.6783   -2.9004    0.0000 C   0  0  0  0  0  0  0  0  0  0  0  0
    0.0361   -2.4879    0.0000 C   0  0  0  0  0  0  0  0  0  0  0  0
    0.0361   -1.6629    0.0000 C   0  0  0  0  0  0  0  0  0  0  0  0
   -0.6783   -3.7254    0.0000 S   0  0  0  0  0  0  0  0  0  0  0  0
    0.0361   -4.1379    0.0000 C   0  0  0  0  0  0  0  0  0  0  0  0
    0.7506   -3.7254    0.0000 C   0  0  0  0  0  0  0  0  0  0  0  0
    1.4651   -4.1379    0.0000 C   0  0  0  0  0  0  0  0  0  0  0  0
    1.4651   -4.9629    0.0000 C   0  0  0  0  0  0  0  0  0  0  0  0
    0.7506   -5.3754    0.0000 C   0  0  0  0  0  0  0  0  0  0  0  0
    0.0361   -4.9629    0.0000 C   0  0  0  0  0  0  0  0  0  0  0  0
   -0.6783   -5.3754    0.0000 N   0  0  0  0  0  0  0  0  0  0  0  0
   -1.3928   -4.9629    0.0000 C   0  0  0  0  0  0  0  0  0  0  0  0
   -0.6783   -6.2004    0.0000 C   0  0  0  0  0  0  0  0  0  0  0  0
  1  2  1  0
  2  3  1  0
  3  4  1  0
  4  5  2  0
  5  6  1  0
  6  7  1  0
  6  8  2  0
  8  9  1  0
  9 10  2  0
  4 10  1  0
  8 11  1  0
 11 12  1  0
 12 13  2  0
 13 14  1  0
 14 15  2  0
 15 16  1  0
 16 17  2  0
 12 17  1  0
 17 18  1  0
 18 19  1  0
 18 20  1  0
M  END
>  <name>  (227) 
AFE

>  <logBB>  (227) 
0.55

>  <logBB_class>  (227) 
1

>  <HAC>  (227) 
20

$$$$
MolID_102
     RDKit          2D

 20 21  0  0  0  0  0  0  0  0999 V2000
    1.4904   -2.4168    0.0000 C   0  0  0  0  0  0  0  0  0  0  0  0
    2.2048   -2.8293    0.0000 C   0  0  0  0  0  0  0  0  0  0  0  0
    2.2048   -3.6543    0.0000 N   0  0  0  0  0  0  0  0  0  0  0  0
    1.4904   -4.0668    0.0000 C   0  0  0  0  0  0  0  0  0  0  0  0
    0.7759   -3.6543    0.0000 C   0  0  0  0  0  0  0  0  0  0  0  0
    0.7759   -2.8293    0.0000 C   0  0  0  0  0  0  0  0  0  0  0  0
    0.0614   -2.4168    0.0000 C   0  0  0  0  0  0  0  0  0  0  0  0
   -0.6531   -2.8293    0.0000 O   0  0  0  0  0  0  0  0  0  0  0  0
   -1.3675   -2.4168    0.0000 C   0  0  0  0  0  0  0  0  0  0  0  0
   -2.0820   -2.8293    0.0000 C   0  0  0  0  0  0  0  0  0  0  0  0
   -2.7965   -2.4168    0.0000 C   0  0  0  0  0  0  0  0  0  0  0  0
   -2.7965   -1.5918    0.0000 C   0  0  0  0  0  0  0  0  0  0  0  0
   -2.0820   -1.1793    0.0000 C   0  0  0  0  0  0  0  0  0  0  0  0
   -1.3675   -1.5918    0.0000 C   0  0  0  0  0  0  0  0  0  0  0  0
   -3.5109   -1.1793    0.0000 C   0  0  0  0  0  0  0  0  0  0  0  0
   -4.2254   -0.7668    0.0000 N   0  0  0  0  0  0  0  0  0  0  0  0
    2.9193   -4.0668    0.0000 C   0  0  0  0  0  0  0  0  0  0  0  0
    3.6338   -3.6543    0.0000 C   0  0  0  0  0  0  0  0  0  0  0  0
    4.3482   -4.0668    0.0000 C   0  0  0  0  0  0  0  0  0  0  0  0
    5.0627   -3.6543    0.0000 I   0  0  0  0  0  0  0  0  0  0  0  0
  1  2  1  0
  2  3  1  0
  3  4  1  0
  4  5  1  0
  5  6  1  0
  1  6  1  0
  6  7  1  0
  7  8  1  0
  8  9  1  0
  9 10  2  0
 10 11  1  0
 11 12  2  0
 12 13  1  0
 13 14  2  0
  9 14  1  0
 12 15  1  0
 15 16  3  0
  3 17  1  0
 17 18  1  0
 18 19  2  3
 19 20  1  0
M  END
>  <name>  (228) 
CHEBI167165

>  <logBB>  (228) 
1.13

>  <logBB_class>  (228) 
1

>  <HAC>  (228) 
20

$$$$
MolID_124
     RDKit          2D

 20 22  0  0  0  0  0  0  0  0999 V2000
   -1.5555   -0.4399    0.0000 C   0  0  0  0  0  0  0  0  0  0  0  0
   -0.7486   -0.2684    0.0000 C   0  0  0  0  0  0  0  0  0  0  0  0
   -0.1965   -0.8815    0.0000 C   0  0  0  0  0  0  0  0  0  0  0  0
   -0.4515   -1.6661    0.0000 C   0  0  0  0  0  0  0  0  0  0  0  0
    0.1006   -2.2792    0.0000 C   0  0  0  0  0  0  0  0  0  0  0  0
   -0.1544   -3.0638    0.0000 C   0  0  0  0  0  0  0  0  0  0  0  0
    0.3977   -3.6769    0.0000 C   0  0  0  0  0  0  0  0  0  0  0  0
    1.2046   -3.5054    0.0000 C   0  0  0  0  0  0  0  0  0  0  0  0
    1.4596   -2.7208    0.0000 C   0  0  0  0  0  0  0  0  0  0  0  0
    0.9075   -2.1077    0.0000 C   0  0  0  0  0  0  0  0  0  0  0  0
    1.1625   -1.3231    0.0000 C   0  0  0  0  0  0  0  0  0  0  0  0
    0.6776   -0.6556    0.0000 N   0  0  0  0  0  0  0  0  0  0  0  0
    1.1625    0.0118    0.0000 O   0  0  0  0  0  0  0  0  0  0  0  0
    1.9471   -0.2431    0.0000 C   0  0  0  0  0  0  0  0  0  0  0  0
    2.6616    0.1694    0.0000 C   0  0  0  0  0  0  0  0  0  0  0  0
    3.3760   -0.2431    0.0000 C   0  0  0  0  0  0  0  0  0  0  0  0
    3.3760   -1.0681    0.0000 C   0  0  0  0  0  0  0  0  0  0  0  0
    2.6616   -1.4806    0.0000 C   0  0  0  0  0  0  0  0  0  0  0  0
    1.9471   -1.0681    0.0000 C   0  0  0  0  0  0  0  0  0  0  0  0
   -1.2584   -1.8376    0.0000 N   0  0  0  0  0  0  0  0  0  0  0  0
  1  2  2  0
  2  3  1  0
  3  4  1  0
  4  5  1  0
  5  6  2  0
  6  7  1  0
  7  8  2  0
  8  9  1  0
  9 10  2  0
  5 10  1  0
 10 11  1  0
 11 12  2  0
 12 13  1  0
 13 14  1  0
 14 15  2  0
 15 16  1  0
 16 17  2  0
 17 18  1  0
 18 19  2  0
 14 19  1  0
 11 19  1  0
  4 20  1  0
M  END
>  <name>  (229) 
CID9861160

>  <logBB>  (229) 
0

>  <logBB_class>  (229) 
0

>  <HAC>  (229) 
20

$$$$
MolID_136
     RDKit          2D

 20 22  0  0  0  0  0  0  0  0999 V2000
   -0.5676   -2.7125    0.0000 C   0  0  0  0  0  0  0  0  0  0  0  0
    0.1469   -3.1250    0.0000 N   0  0  0  0  0  0  0  0  0  0  0  0
    0.8613   -2.7125    0.0000 C   0  0  0  0  0  0  0  0  0  0  0  0
    1.5758   -3.1250    0.0000 C   0  0  0  0  0  0  0  0  0  0  0  0
    2.2903   -2.7125    0.0000 C   0  0  0  0  0  0  0  0  0  0  0  0
    3.0047   -3.1250    0.0000 N   0  0  0  0  0  0  0  0  0  0  0  0
    3.6864   -2.6603    0.0000 C   0  0  0  0  0  0  0  0  0  0  0  0
    3.5028   -1.8560    0.0000 C   0  0  0  0  0  0  0  0  0  0  0  0
    4.1076   -1.2948    0.0000 C   0  0  0  0  0  0  0  0  0  0  0  0
    4.8959   -1.5380    0.0000 C   0  0  0  0  0  0  0  0  0  0  0  0
    5.0795   -2.3423    0.0000 C   0  0  0  0  0  0  0  0  0  0  0  0
    4.4747   -2.9035    0.0000 C   0  0  0  0  0  0  0  0  0  0  0  0
    4.7761   -3.6714    0.0000 C   0  0  0  0  0  0  0  0  0  0  0  0
    4.3636   -4.3859    0.0000 C   0  0  0  0  0  0  0  0  0  0  0  0
    3.5479   -4.5089    0.0000 C   0  0  0  0  0  0  0  0  0  0  0  0
    3.3643   -5.3132    0.0000 C   0  0  0  0  0  0  0  0  0  0  0  0
    2.5759   -5.5564    0.0000 C   0  0  0  0  0  0  0  0  0  0  0  0
    1.9712   -4.9952    0.0000 C   0  0  0  0  0  0  0  0  0  0  0  0
    2.1547   -4.1909    0.0000 C   0  0  0  0  0  0  0  0  0  0  0  0
    2.9431   -3.9477    0.0000 C   0  0  0  0  0  0  0  0  0  0  0  0
  1  2  1  0
  2  3  1  0
  3  4  1  0
  4  5  1  0
  5  6  1  0
  6  7  1  0
  7  8  2  0
  8  9  1  0
  9 10  2  0
 10 11  1  0
 11 12  2  0
  7 12  1  0
 12 13  1  0
 13 14  1  0
 14 15  1  0
 15 16  2  0
 16 17  1  0
 17 18  2  0
 18 19  1  0
 19 20  2  0
 15 20  1  0
  6 20  1  0
M  END
>  <name>  (230) 
desipramine

>  <logBB>  (230) 
1.08

>  <logBB_class>  (230) 
1

>  <HAC>  (230) 
20

$$$$
MolID_139
     RDKit          2D

 20 22  0  0  0  0  0  0  0  0999 V2000
    3.4228    1.4203    0.0000 C   0  0  0  0  0  0  0  0  0  0  0  0
    3.6064    0.6160    0.0000 N   0  0  0  0  0  0  0  0  0  0  0  0
    4.4107    0.4324    0.0000 C   0  0  0  0  0  0  0  0  0  0  0  0
    4.9250    1.0774    0.0000 O   0  0  0  0  0  0  0  0  0  0  0  0
    4.7686   -0.3109    0.0000 C   0  0  0  0  0  0  0  0  0  0  0  0
    4.4107   -1.0542    0.0000 N   0  0  0  0  0  0  0  0  0  0  0  0
    3.6064   -1.2378    0.0000 C   0  0  0  0  0  0  0  0  0  0  0  0
    2.9613   -0.7234    0.0000 C   0  0  0  0  0  0  0  0  0  0  0  0
    2.9613    0.1016    0.0000 C   0  0  0  0  0  0  0  0  0  0  0  0
    2.2469    0.5141    0.0000 C   0  0  0  0  0  0  0  0  0  0  0  0
    1.5324    0.1016    0.0000 C   0  0  0  0  0  0  0  0  0  0  0  0
    1.5324   -0.7234    0.0000 C   0  0  0  0  0  0  0  0  0  0  0  0
    2.2469   -1.1359    0.0000 C   0  0  0  0  0  0  0  0  0  0  0  0
    0.8179   -1.1359    0.0000 Cl  0  0  0  0  0  0  0  0  0  0  0  0
    3.4228   -2.0421    0.0000 C   0  0  0  0  0  0  0  0  0  0  0  0
    4.0275   -2.6032    0.0000 C   0  0  0  0  0  0  0  0  0  0  0  0
    3.8440   -3.4075    0.0000 C   0  0  0  0  0  0  0  0  0  0  0  0
    3.0556   -3.6507    0.0000 C   0  0  0  0  0  0  0  0  0  0  0  0
    2.4508   -3.0896    0.0000 C   0  0  0  0  0  0  0  0  0  0  0  0
    2.6344   -2.2853    0.0000 C   0  0  0  0  0  0  0  0  0  0  0  0
  1  2  1  0
  2  3  1  0
  3  4  2  0
  3  5  1  0
  5  6  1  0
  6  7  2  0
  7  8  1  0
  8  9  2  0
  2  9  1  0
  9 10  1  0
 10 11  2  0
 11 12  1  0
 12 13  2  0
  8 13  1  0
 12 14  1  0
  7 15  1  0
 15 16  2  0
 16 17  1  0
 17 18  2  0
 18 19  1  0
 19 20  2  0
 15 20  1  0
M  END
>  <name>  (231) 
diazepam

>  <logBB>  (231) 
0.47

>  <logBB_class>  (231) 
1

>  <HAC>  (231) 
20

$$$$
MolID_150
     RDKit          2D

 20 21  0  0  0  0  0  0  0  0999 V2000
    1.4731    0.4103    0.0000 C   0  0  0  0  0  0  0  0  0  0  0  0
    2.2981    0.4103    0.0000 C   0  0  0  0  0  0  0  0  0  0  0  0
    2.2981   -0.4147    0.0000 C   0  0  0  0  0  0  0  0  0  0  0  0
    3.0125   -0.8272    0.0000 C   0  0  0  0  0  0  0  0  0  0  0  0
    3.0125   -1.6522    0.0000 C   0  0  0  0  0  0  0  0  0  0  0  0
    2.2981   -2.0647    0.0000 C   0  0  0  0  0  0  0  0  0  0  0  0
    1.5836   -1.6522    0.0000 C   0  0  0  0  0  0  0  0  0  0  0  0
    1.5836   -0.8272    0.0000 C   0  0  0  0  0  0  0  0  0  0  0  0
    3.1231    0.4103    0.0000 C   0  0  0  0  0  0  0  0  0  0  0  0
    3.5356    1.1247    0.0000 C   0  0  0  0  0  0  0  0  0  0  0  0
    4.3606    1.1247    0.0000 C   0  0  0  0  0  0  0  0  0  0  0  0
    4.7731    0.4103    0.0000 C   0  0  0  0  0  0  0  0  0  0  0  0
    4.3606   -0.3042    0.0000 C   0  0  0  0  0  0  0  0  0  0  0  0
    3.5356   -0.3042    0.0000 N   0  0  0  0  0  0  0  0  0  0  0  0
    2.2981    1.2353    0.0000 O   0  0  0  0  0  0  0  0  0  0  0  0
    3.0125    1.6478    0.0000 C   0  0  0  0  0  0  0  0  0  0  0  0
    3.0125    2.4728    0.0000 C   0  0  0  0  0  0  0  0  0  0  0  0
    3.7270    2.8853    0.0000 N   0  0  0  0  0  0  0  0  0  0  0  0
    3.7270    3.7103    0.0000 C   0  0  0  0  0  0  0  0  0  0  0  0
    4.4415    2.4728    0.0000 C   0  0  0  0  0  0  0  0  0  0  0  0
  1  2  1  0
  2  3  1  0
  3  4  2  0
  4  5  1  0
  5  6  2  0
  6  7  1  0
  7  8  2  0
  3  8  1  0
  2  9  1  0
  9 10  2  0
 10 11  1  0
 11 12  2  0
 12 13  1  0
 13 14  2  0
  9 14  1  0
  2 15  1  0
 15 16  1  0
 16 17  1  0
 17 18  1  0
 18 19  1  0
 18 20  1  0
M  END
>  <name>  (232) 
doxylamine

>  <logBB>  (232) 
0.64

>  <logBB_class>  (232) 
1

>  <HAC>  (232) 
20

$$$$
MolID_15
     RDKit          2D

 21 24  0  0  0  0  0  0  0  0999 V2000
    4.3698   -1.1260    0.0000 C   0  0  0  0  0  0  0  0  0  0  0  0
    4.0099   -0.3836    0.0000 C   0  0  0  0  0  0  0  0  0  0  0  0
    3.4781   -1.0143    0.0000 C   0  0  0  0  0  0  0  0  0  0  0  0
    2.6659   -0.8691    0.0000 C   0  0  0  0  0  0  0  0  0  0  0  0
    2.3856   -0.0932    0.0000 C   0  0  0  0  0  0  0  0  0  0  0  0
    2.9175    0.5375    0.0000 C   0  0  0  0  0  0  0  0  0  0  0  0
    3.7296    0.3923    0.0000 C   0  0  0  0  0  0  0  0  0  0  0  0
    4.3809    0.8987    0.0000 C   0  0  0  0  0  0  0  0  0  0  0  0
    5.0638    0.4357    0.0000 C   0  0  0  0  0  0  0  0  0  0  0  0
    4.8345   -0.3568    0.0000 C   0  0  0  0  0  0  0  0  0  0  0  0
    5.3408   -1.0081    0.0000 O   0  0  0  0  0  0  0  0  0  0  0  0
    5.8397    0.7160    0.0000 F   0  0  0  0  0  0  0  0  0  0  0  0
    2.6372    1.3134    0.0000 C   0  0  0  0  0  0  0  0  0  0  0  0
    1.8250    1.4587    0.0000 C   0  0  0  0  0  0  0  0  0  0  0  0
    1.2932    0.8280    0.0000 C   0  0  0  0  0  0  0  0  0  0  0  0
    1.5735    0.0520    0.0000 C   0  0  0  0  0  0  0  0  0  0  0  0
    1.0417   -0.5787    0.0000 C   0  0  0  0  0  0  0  0  0  0  0  0
    0.2296   -0.4335    0.0000 C   0  0  0  0  0  0  0  0  0  0  0  0
   -0.0507    0.3425    0.0000 C   0  0  0  0  0  0  0  0  0  0  0  0
    0.4811    0.9732    0.0000 C   0  0  0  0  0  0  0  0  0  0  0  0
   -0.8628    0.4877    0.0000 O   0  0  0  0  0  0  0  0  0  0  0  0
  1  2  1  0
  2  3  1  0
  3  4  1  0
  4  5  1  0
  5  6  1  0
  6  7  1  0
  2  7  1  0
  7  8  1  0
  8  9  1  0
  9 10  1  0
  2 10  1  0
 10 11  1  0
  9 12  1  0
  6 13  1  0
 13 14  1  0
 14 15  1  0
 15 16  2  0
  5 16  1  0
 16 17  1  0
 17 18  2  0
 18 19  1  0
 19 20  2  0
 15 20  1  0
 19 21  1  0
M  END
>  <name>  (233) 
16a-fluoroestradiol

>  <logBB>  (233) 
-0.3

>  <logBB_class>  (233) 
0

>  <HAC>  (233) 
21

$$$$
MolID_29
     RDKit          2D

 21 23  0  0  0  0  0  0  0  0999 V2000
   -0.6349   -2.6388    0.0000 C   0  0  0  0  0  0  0  0  0  0  0  0
    0.0795   -3.0513    0.0000 N   0  0  0  0  0  0  0  0  0  0  0  0
    0.7940   -2.6388    0.0000 C   0  0  0  0  0  0  0  0  0  0  0  0
    1.5085   -3.0513    0.0000 C   0  0  0  0  0  0  0  0  0  0  0  0
    2.2230   -2.6388    0.0000 C   0  0  0  0  0  0  0  0  0  0  0  0
    2.9374   -3.0513    0.0000 N   0  0  0  0  0  0  0  0  0  0  0  0
    3.6191   -2.5866    0.0000 C   0  0  0  0  0  0  0  0  0  0  0  0
    4.4074   -2.8297    0.0000 C   0  0  0  0  0  0  0  0  0  0  0  0
    4.7088   -3.5977    0.0000 C   0  0  0  0  0  0  0  0  0  0  0  0
    4.2963   -4.3122    0.0000 C   0  0  0  0  0  0  0  0  0  0  0  0
    3.4805   -4.4351    0.0000 C   0  0  0  0  0  0  0  0  0  0  0  0
    3.2970   -5.2395    0.0000 C   0  0  0  0  0  0  0  0  0  0  0  0
    2.5086   -5.4826    0.0000 C   0  0  0  0  0  0  0  0  0  0  0  0
    1.9039   -4.9215    0.0000 C   0  0  0  0  0  0  0  0  0  0  0  0
    2.0874   -4.1172    0.0000 C   0  0  0  0  0  0  0  0  0  0  0  0
    2.8758   -3.8740    0.0000 C   0  0  0  0  0  0  0  0  0  0  0  0
    5.0122   -2.2686    0.0000 C   0  0  0  0  0  0  0  0  0  0  0  0
    4.8286   -1.4643    0.0000 C   0  0  0  0  0  0  0  0  0  0  0  0
    4.0403   -1.2211    0.0000 C   0  0  0  0  0  0  0  0  0  0  0  0
    3.4355   -1.7823    0.0000 C   0  0  0  0  0  0  0  0  0  0  0  0
    5.4334   -0.9031    0.0000 O   0  0  0  0  0  0  0  0  0  0  0  0
  1  2  1  0
  2  3  1  0
  3  4  1  0
  4  5  1  0
  5  6  1  0
  6  7  1  0
  7  8  2  0
  8  9  1  0
  9 10  1  0
 10 11  1  0
 11 12  2  0
 12 13  1  0
 13 14  2  0
 14 15  1  0
 15 16  2  0
 11 16  1  0
  6 16  1  0
  8 17  1  0
 17 18  2  0
 18 19  1  0
 19 20  2  0
  7 20  1  0
 18 21  1  0
M  END
>  <name>  (234) 
2-hydroxydesipramine

>  <logBB>  (234) 
0.53

>  <logBB_class>  (234) 
1

>  <HAC>  (234) 
21

$$$$
MolID_64
     RDKit          2D

 21 23  0  0  0  0  0  0  0  0999 V2000
    2.3320    3.6112    0.0000 C   0  0  0  0  0  0  0  0  0  0  0  0
    2.3320    2.7862    0.0000 N   0  0  0  0  0  0  0  0  0  0  0  0
    1.6176    2.3737    0.0000 C   0  0  0  0  0  0  0  0  0  0  0  0
    3.0465    2.3737    0.0000 C   0  0  0  0  0  0  0  0  0  0  0  0
    3.0465    1.5487    0.0000 C   0  0  0  0  0  0  0  0  0  0  0  0
    3.7610    1.1362    0.0000 C   0  0  0  0  0  0  0  0  0  0  0  0
    3.7610    0.3112    0.0000 C   0  0  0  0  0  0  0  0  0  0  0  0
    4.5043   -0.0468    0.0000 C   0  0  0  0  0  0  0  0  0  0  0  0
    5.1090    0.5143    0.0000 C   0  0  0  0  0  0  0  0  0  0  0  0
    5.8974    0.2712    0.0000 C   0  0  0  0  0  0  0  0  0  0  0  0
    6.0810   -0.5331    0.0000 C   0  0  0  0  0  0  0  0  0  0  0  0
    5.4762   -1.0943    0.0000 C   0  0  0  0  0  0  0  0  0  0  0  0
    4.6879   -0.8511    0.0000 C   0  0  0  0  0  0  0  0  0  0  0  0
    4.1735   -1.4961    0.0000 C   0  0  0  0  0  0  0  0  0  0  0  0
    3.3485   -1.4961    0.0000 C   0  0  0  0  0  0  0  0  0  0  0  0
    2.8341   -0.8511    0.0000 C   0  0  0  0  0  0  0  0  0  0  0  0
    2.0458   -1.0943    0.0000 C   0  0  0  0  0  0  0  0  0  0  0  0
    1.4410   -0.5331    0.0000 C   0  0  0  0  0  0  0  0  0  0  0  0
    1.6246    0.2712    0.0000 C   0  0  0  0  0  0  0  0  0  0  0  0
    2.4129    0.5143    0.0000 C   0  0  0  0  0  0  0  0  0  0  0  0
    3.0177   -0.0468    0.0000 C   0  0  0  0  0  0  0  0  0  0  0  0
  1  2  1  0
  2  3  1  0
  2  4  1  0
  4  5  1  0
  5  6  1  0
  6  7  2  0
  7  8  1  0
  8  9  2  0
  9 10  1  0
 10 11  2  0
 11 12  1  0
 12 13  2  0
  8 13  1  0
 13 14  1  0
 14 15  1  0
 15 16  1  0
 16 17  2  0
 17 18  1  0
 18 19  2  0
 19 20  1  0
 20 21  2  0
 16 21  1  0
  7 21  1  0
M  END
>  <name>  (235) 
amitriptyline

>  <logBB>  (235) 
0.9

>  <logBB_class>  (235) 
1

>  <HAC>  (235) 
21

$$$$
MolID_72
     RDKit          2D

 21 23  0  0  0  0  0  0  0  0999 V2000
    1.2517   -1.2713    0.0000 C   0  0  0  0  0  0  0  0  0  0  0  0
    0.4447   -1.0998    0.0000 N   0  0  0  0  0  0  0  0  0  0  0  0
    0.7075   -0.1812    0.0000 C   0  0  0  0  0  0  0  0  0  0  0  0
   -0.1083   -0.3042    0.0000 C   0  0  0  0  0  0  0  0  0  0  0  0
   -0.5208   -1.0186    0.0000 C   0  0  0  0  0  0  0  0  0  0  0  0
   -0.2194   -1.7866    0.0000 C   0  0  0  0  0  0  0  0  0  0  0  0
    0.5689   -2.0298    0.0000 C   0  0  0  0  0  0  0  0  0  0  0  0
    1.2506   -1.5651    0.0000 C   0  0  0  0  0  0  0  0  0  0  0  0
    1.3122   -0.7424    0.0000 C   0  0  0  0  0  0  0  0  0  0  0  0
    1.9651   -1.9776    0.0000 O   0  0  0  0  0  0  0  0  0  0  0  0
    1.9651   -2.8026    0.0000 C   0  0  0  0  0  0  0  0  0  0  0  0
    1.2506   -3.2151    0.0000 O   0  0  0  0  0  0  0  0  0  0  0  0
    2.6795   -3.2151    0.0000 C   0  0  0  0  0  0  0  0  0  0  0  0
    3.3940   -2.8026    0.0000 C   0  0  0  0  0  0  0  0  0  0  0  0
    4.1085   -3.2151    0.0000 O   0  0  0  0  0  0  0  0  0  0  0  0
    2.6795   -4.0401    0.0000 C   0  0  0  0  0  0  0  0  0  0  0  0
    3.3940   -4.4526    0.0000 C   0  0  0  0  0  0  0  0  0  0  0  0
    3.3940   -5.2776    0.0000 C   0  0  0  0  0  0  0  0  0  0  0  0
    2.6795   -5.6901    0.0000 C   0  0  0  0  0  0  0  0  0  0  0  0
    1.9651   -5.2776    0.0000 C   0  0  0  0  0  0  0  0  0  0  0  0
    1.9651   -4.4526    0.0000 C   0  0  0  0  0  0  0  0  0  0  0  0
  1  2  1  0
  2  3  1  0
  3  4  1  0
  4  5  1  0
  5  6  1  0
  2  6  1  0
  6  7  1  0
  7  8  1  0
  8  9  1  0
  3  9  1  0
  8 10  1  0
 10 11  1  0
 11 12  2  0
 11 13  1  0
 13 14  1  0
 14 15  1  0
 13 16  1  0
 16 17  2  0
 17 18  1  0
 18 19  2  0
 19 20  1  0
 20 21  2  0
 16 21  1  0
M  END
>  <name>  (236) 
atropine

>  <logBB>  (236) 
-0.06

>  <logBB_class>  (236) 
0

>  <HAC>  (236) 
21

$$$$
MolID_109
     RDKit          2D

 21 22  0  0  0  0  0  0  0  0999 V2000
   -3.5975   -6.1519    0.0000 C   0  0  0  0  0  0  0  0  0  0  0  0
   -2.8831   -5.7394    0.0000 C   0  0  0  0  0  0  0  0  0  0  0  0
   -2.8831   -4.9144    0.0000 O   0  0  0  0  0  0  0  0  0  0  0  0
   -2.1686   -6.1519    0.0000 N   0  0  0  0  0  0  0  0  0  0  0  0
   -1.4541   -5.7394    0.0000 C   0  0  0  0  0  0  0  0  0  0  0  0
   -0.7396   -6.1519    0.0000 C   0  0  0  0  0  0  0  0  0  0  0  0
   -0.0252   -5.7394    0.0000 C   0  0  0  0  0  0  0  0  0  0  0  0
    0.6893   -6.1519    0.0000 O   0  0  0  0  0  0  0  0  0  0  0  0
    1.4038   -5.7394    0.0000 C   0  0  0  0  0  0  0  0  0  0  0  0
    1.4038   -4.9144    0.0000 C   0  0  0  0  0  0  0  0  0  0  0  0
    2.1182   -4.5019    0.0000 C   0  0  0  0  0  0  0  0  0  0  0  0
    2.8327   -4.9144    0.0000 C   0  0  0  0  0  0  0  0  0  0  0  0
    2.8327   -5.7394    0.0000 C   0  0  0  0  0  0  0  0  0  0  0  0
    2.1182   -6.1519    0.0000 C   0  0  0  0  0  0  0  0  0  0  0  0
    3.5472   -6.1519    0.0000 C   0  0  0  0  0  0  0  0  0  0  0  0
    4.2617   -5.7394    0.0000 N   0  0  0  0  0  0  0  0  0  0  0  0
    4.2617   -4.9144    0.0000 C   0  0  0  0  0  0  0  0  0  0  0  0
    4.9761   -4.5019    0.0000 C   0  0  0  0  0  0  0  0  0  0  0  0
    5.6906   -4.9144    0.0000 C   0  0  0  0  0  0  0  0  0  0  0  0
    5.6906   -5.7394    0.0000 C   0  0  0  0  0  0  0  0  0  0  0  0
    4.9761   -6.1519    0.0000 C   0  0  0  0  0  0  0  0  0  0  0  0
  1  2  1  0
  2  3  2  0
  2  4  1  0
  4  5  1  0
  5  6  1  0
  6  7  1  0
  7  8  1  0
  8  9  1  0
  9 10  2  0
 10 11  1  0
 11 12  2  0
 12 13  1  0
 13 14  2  0
  9 14  1  0
 13 15  1  0
 15 16  1  0
 16 17  1  0
 17 18  1  0
 18 19  1  0
 19 20  1  0
 20 21  1  0
 16 21  1  0
M  END
>  <name>  (237) 
CHEBI338581

>  <logBB>  (237) 
-0.46

>  <logBB_class>  (237) 
0

>  <HAC>  (237) 
21

$$$$
MolID_120
     RDKit          2D

 21 23  0  0  0  0  0  0  0  0999 V2000
   -3.5713    1.2467    0.0000 C   0  0  0  0  0  0  0  0  0  0  0  0
   -2.8568    1.6592    0.0000 N   0  0  0  0  0  0  0  0  0  0  0  0
   -2.8568    2.4842    0.0000 C   0  0  0  0  0  0  0  0  0  0  0  0
   -2.1424    1.2467    0.0000 C   0  0  0  0  0  0  0  0  0  0  0  0
   -1.4279    1.6592    0.0000 C   0  0  0  0  0  0  0  0  0  0  0  0
   -0.7134    1.2467    0.0000 C   0  0  0  0  0  0  0  0  0  0  0  0
    0.0010    1.6592    0.0000 N   0  0  0  0  0  0  0  0  0  0  0  0
    0.7155    1.2467    0.0000 C   0  0  0  0  0  0  0  0  0  0  0  0
    0.7155    0.4217    0.0000 C   0  0  0  0  0  0  0  0  0  0  0  0
    1.4300    0.0092    0.0000 C   0  0  0  0  0  0  0  0  0  0  0  0
    2.1445    0.4217    0.0000 C   0  0  0  0  0  0  0  0  0  0  0  0
    2.1445    1.2467    0.0000 C   0  0  0  0  0  0  0  0  0  0  0  0
    1.4300    1.6592    0.0000 C   0  0  0  0  0  0  0  0  0  0  0  0
    1.4300    2.4842    0.0000 S   0  0  0  0  0  0  0  0  0  0  0  0
    0.7155    2.8967    0.0000 C   0  0  0  0  0  0  0  0  0  0  0  0
    0.0010    2.4842    0.0000 C   0  0  0  0  0  0  0  0  0  0  0  0
   -0.7134    2.8967    0.0000 C   0  0  0  0  0  0  0  0  0  0  0  0
   -0.7134    3.7217    0.0000 C   0  0  0  0  0  0  0  0  0  0  0  0
    0.0010    4.1342    0.0000 C   0  0  0  0  0  0  0  0  0  0  0  0
    0.7155    3.7217    0.0000 C   0  0  0  0  0  0  0  0  0  0  0  0
   -1.4279    4.1342    0.0000 Cl  0  0  0  0  0  0  0  0  0  0  0  0
  1  2  1  0
  2  3  1  0
  2  4  1  0
  4  5  1  0
  5  6  1  0
  6  7  1  0
  7  8  1  0
  8  9  2  0
  9 10  1  0
 10 11  2  0
 11 12  1  0
 12 13  2  0
  8 13  1  0
 13 14  1  0
 14 15  1  0
 15 16  2  0
  7 16  1  0
 16 17  1  0
 17 18  2  0
 18 19  1  0
 19 20  2  0
 15 20  1  0
 18 21  1  0
M  END
>  <name>  (238) 
chlorpromazine

>  <logBB>  (238) 
1.02

>  <logBB_class>  (238) 
1

>  <HAC>  (238) 
21

$$$$
MolID_122
     RDKit          2D

 21 24  0  0  0  0  0  0  0  0999 V2000
    0.2074    0.6706    0.0000 C   0  0  0  0  0  0  0  0  0  0  0  0
    0.0239   -0.1337    0.0000 C   0  0  0  0  0  0  0  0  0  0  0  0
   -0.7645   -0.3769    0.0000 C   0  0  0  0  0  0  0  0  0  0  0  0
   -0.9481   -1.1812    0.0000 C   0  0  0  0  0  0  0  0  0  0  0  0
   -0.3433   -1.7424    0.0000 C   0  0  0  0  0  0  0  0  0  0  0  0
    0.4450   -1.4992    0.0000 C   0  0  0  0  0  0  0  0  0  0  0  0
    0.6286   -0.6949    0.0000 C   0  0  0  0  0  0  0  0  0  0  0  0
    1.3719   -0.3369    0.0000 O   0  0  0  0  0  0  0  0  0  0  0  0
    2.1152   -0.6949    0.0000 C   0  0  0  0  0  0  0  0  0  0  0  0
    2.7200   -0.1337    0.0000 C   0  0  0  0  0  0  0  0  0  0  0  0
    3.5083   -0.3769    0.0000 C   0  0  0  0  0  0  0  0  0  0  0  0
    3.6919   -1.1812    0.0000 C   0  0  0  0  0  0  0  0  0  0  0  0
    3.0872   -1.7424    0.0000 C   0  0  0  0  0  0  0  0  0  0  0  0
    2.2988   -1.4992    0.0000 C   0  0  0  0  0  0  0  0  0  0  0  0
    1.7844   -2.1442    0.0000 C   0  0  0  0  0  0  0  0  0  0  0  0
    0.9594   -2.1442    0.0000 C   0  0  0  0  0  0  0  0  0  0  0  0
    0.5469   -2.8587    0.0000 C   0  0  0  0  0  0  0  0  0  0  0  0
    0.9594   -3.5732    0.0000 N   0  0  0  0  0  0  0  0  0  0  0  0
    1.7844   -3.5732    0.0000 C   0  0  0  0  0  0  0  0  0  0  0  0
    2.1969   -2.8587    0.0000 C   0  0  0  0  0  0  0  0  0  0  0  0
    2.6071   -2.2059    0.0000 O   0  0  0  0  0  0  0  0  0  0  0  0
  1  2  1  0
  2  3  2  0
  3  4  1  0
  4  5  2  0
  5  6  1  0
  6  7  2  0
  2  7  1  0
  7  8  1  0
  8  9  1  0
  9 10  2  0
 10 11  1  0
 11 12  2  0
 12 13  1  0
 13 14  2  0
  9 14  1  0
 14 15  1  0
 15 16  1  0
  6 16  1  0
 16 17  1  0
 17 18  1  0
 18 19  1  0
 19 20  1  0
 15 20  1  0
 15 21  1  0
M  END
>  <name>  (239) 
CID22154175

>  <logBB>  (239) 
0.52

>  <logBB_class>  (239) 
1

>  <HAC>  (239) 
21

$$$$
MolID_126
     RDKit          2D

 21 23  0  0  0  0  0  0  0  0999 V2000
    3.4235    1.4215    0.0000 C   0  0  0  0  0  0  0  0  0  0  0  0
    3.6071    0.6172    0.0000 N   0  0  0  0  0  0  0  0  0  0  0  0
    4.4114    0.4336    0.0000 C   0  0  0  0  0  0  0  0  0  0  0  0
    4.9258    1.0786    0.0000 O   0  0  0  0  0  0  0  0  0  0  0  0
    4.7694   -0.3097    0.0000 C   0  0  0  0  0  0  0  0  0  0  0  0
    4.4114   -1.0530    0.0000 C   0  0  0  0  0  0  0  0  0  0  0  0
    4.9258   -1.6980    0.0000 O   0  0  0  0  0  0  0  0  0  0  0  0
    3.6071   -1.2365    0.0000 N   0  0  0  0  0  0  0  0  0  0  0  0
    2.9621   -0.7222    0.0000 C   0  0  0  0  0  0  0  0  0  0  0  0
    2.9621    0.1028    0.0000 C   0  0  0  0  0  0  0  0  0  0  0  0
    2.2476    0.5153    0.0000 C   0  0  0  0  0  0  0  0  0  0  0  0
    1.5331    0.1028    0.0000 C   0  0  0  0  0  0  0  0  0  0  0  0
    1.5331   -0.7222    0.0000 C   0  0  0  0  0  0  0  0  0  0  0  0
    2.2476   -1.1347    0.0000 C   0  0  0  0  0  0  0  0  0  0  0  0
    0.8187   -1.1347    0.0000 Cl  0  0  0  0  0  0  0  0  0  0  0  0
    3.4235   -2.0409    0.0000 C   0  0  0  0  0  0  0  0  0  0  0  0
    4.0283   -2.6020    0.0000 C   0  0  0  0  0  0  0  0  0  0  0  0
    3.8447   -3.4063    0.0000 C   0  0  0  0  0  0  0  0  0  0  0  0
    3.0564   -3.6495    0.0000 C   0  0  0  0  0  0  0  0  0  0  0  0
    2.4516   -3.0884    0.0000 C   0  0  0  0  0  0  0  0  0  0  0  0
    2.6352   -2.2840    0.0000 C   0  0  0  0  0  0  0  0  0  0  0  0
  1  2  1  0
  2  3  1  0
  3  4  2  0
  3  5  1  0
  5  6  1  0
  6  7  2  0
  6  8  1  0
  8  9  1  0
  9 10  2  0
  2 10  1  0
 10 11  1  0
 11 12  2  0
 12 13  1  0
 13 14  2  0
  9 14  1  0
 13 15  1  0
  8 16  1  0
 16 17  2  0
 17 18  1  0
 18 19  2  0
 19 20  1  0
 20 21  2  0
 16 21  1  0
M  END
>  <name>  (240) 
clobazam

>  <logBB>  (240) 
0.36

>  <logBB_class>  (240) 
1

>  <HAC>  (240) 
21

$$$$
MolID_171
     RDKit          2D

 21 24  0  0  0  0  0  0  0  0999 V2000
    2.5479    4.1508    0.0000 C   0  0  0  0  0  0  0  0  0  0  0  0
    2.7267    3.3453    0.0000 N   0  0  0  0  0  0  0  0  0  0  0  0
    3.4824    2.9698    0.0000 C   0  0  0  0  0  0  0  0  0  0  0  0
    3.3600    2.1206    0.0000 C   0  0  0  0  0  0  0  0  0  0  0  0
    3.4771    1.2501    0.0000 C   0  0  0  0  0  0  0  0  0  0  0  0
    4.0278    1.8644    0.0000 C   0  0  0  0  0  0  0  0  0  0  0  0
    4.8351    1.6946    0.0000 C   0  0  0  0  0  0  0  0  0  0  0  0
    5.0918    0.9106    0.0000 C   0  0  0  0  0  0  0  0  0  0  0  0
    4.5411    0.2963    0.0000 C   0  0  0  0  0  0  0  0  0  0  0  0
    3.7337    0.4660    0.0000 C   0  0  0  0  0  0  0  0  0  0  0  0
    3.0674   -0.0203    0.0000 O   0  0  0  0  0  0  0  0  0  0  0  0
    2.3989    0.4631    0.0000 C   0  0  0  0  0  0  0  0  0  0  0  0
    1.5923    0.2898    0.0000 C   0  0  0  0  0  0  0  0  0  0  0  0
    1.0389    0.9017    0.0000 C   0  0  0  0  0  0  0  0  0  0  0  0
    1.2921    1.6869    0.0000 C   0  0  0  0  0  0  0  0  0  0  0  0
    2.1363    1.8922    0.0000 C   0  0  0  0  0  0  0  0  0  0  0  0
    2.6521    1.2483    0.0000 C   0  0  0  0  0  0  0  0  0  0  0  0
    2.2058    2.6917    0.0000 C   0  0  0  0  0  0  0  0  0  0  0  0
    1.3390   -0.4954    0.0000 O   0  0  0  0  0  0  0  0  0  0  0  0
    1.8924   -1.1072    0.0000 C   0  0  0  0  0  0  0  0  0  0  0  0
    5.8991    0.7408    0.0000 O   0  0  0  0  0  0  0  0  0  0  0  0
  1  2  1  0
  2  3  1  0
  3  4  1  0
  4  5  1  0
  5  6  1  0
  6  7  2  0
  7  8  1  0
  8  9  1  0
  9 10  1  0
  5 10  1  0
 10 11  1  0
 11 12  1  0
 12 13  2  0
 13 14  1  0
 14 15  2  0
 15 16  1  0
 16 17  2  0
  5 17  1  0
 12 17  1  0
 16 18  1  0
  2 18  1  0
 13 19  1  0
 19 20  1  0
  8 21  1  0
M  END
>  <name>  (241) 
galanthamine

>  <logBB>  (241) 
0.32

>  <logBB_class>  (241) 
1

>  <HAC>  (241) 
21

$$$$
MolID_182
     RDKit          2D

 21 23  0  0  0  0  0  0  0  0999 V2000
   -0.5592   -2.7421    0.0000 C   0  0  0  0  0  0  0  0  0  0  0  0
    0.1553   -3.1546    0.0000 N   0  0  0  0  0  0  0  0  0  0  0  0
    0.1553   -3.9796    0.0000 C   0  0  0  0  0  0  0  0  0  0  0  0
    0.8698   -2.7421    0.0000 C   0  0  0  0  0  0  0  0  0  0  0  0
    1.5842   -3.1546    0.0000 C   0  0  0  0  0  0  0  0  0  0  0  0
    2.2987   -2.7421    0.0000 C   0  0  0  0  0  0  0  0  0  0  0  0
    3.0132   -3.1546    0.0000 N   0  0  0  0  0  0  0  0  0  0  0  0
    3.6948   -2.6898    0.0000 C   0  0  0  0  0  0  0  0  0  0  0  0
    3.5112   -1.8855    0.0000 C   0  0  0  0  0  0  0  0  0  0  0  0
    4.1160   -1.3244    0.0000 C   0  0  0  0  0  0  0  0  0  0  0  0
    4.9044   -1.5676    0.0000 C   0  0  0  0  0  0  0  0  0  0  0  0
    5.0879   -2.3719    0.0000 C   0  0  0  0  0  0  0  0  0  0  0  0
    4.4832   -2.9330    0.0000 C   0  0  0  0  0  0  0  0  0  0  0  0
    4.7846   -3.7010    0.0000 C   0  0  0  0  0  0  0  0  0  0  0  0
    4.3721   -4.4155    0.0000 C   0  0  0  0  0  0  0  0  0  0  0  0
    3.5563   -4.5384    0.0000 C   0  0  0  0  0  0  0  0  0  0  0  0
    3.3727   -5.3427    0.0000 C   0  0  0  0  0  0  0  0  0  0  0  0
    2.5844   -5.5859    0.0000 C   0  0  0  0  0  0  0  0  0  0  0  0
    1.9796   -5.0248    0.0000 C   0  0  0  0  0  0  0  0  0  0  0  0
    2.1632   -4.2204    0.0000 C   0  0  0  0  0  0  0  0  0  0  0  0
    2.9515   -3.9773    0.0000 C   0  0  0  0  0  0  0  0  0  0  0  0
  1  2  1  0
  2  3  1  0
  2  4  1  0
  4  5  1  0
  5  6  1  0
  6  7  1  0
  7  8  1  0
  8  9  2  0
  9 10  1  0
 10 11  2  0
 11 12  1  0
 12 13  2  0
  8 13  1  0
 13 14  1  0
 14 15  1  0
 15 16  1  0
 16 17  2  0
 17 18  1  0
 18 19  2  0
 19 20  1  0
 20 21  2  0
 16 21  1  0
  7 21  1  0
M  END
>  <name>  (242) 
imipramine

>  <logBB>  (242) 
0.98

>  <logBB_class>  (242) 
1

>  <HAC>  (242) 
21

$$$$
MolID_195
     RDKit          2D

 21 23  0  0  0  0  0  0  0  0999 V2000
    2.3894    2.5153    0.0000 C   0  0  0  0  0  0  0  0  0  0  0  0
    2.9941    3.0764    0.0000 C   0  0  0  0  0  0  0  0  0  0  0  0
    3.7825    2.8333    0.0000 C   0  0  0  0  0  0  0  0  0  0  0  0
    3.9661    2.0290    0.0000 C   0  0  0  0  0  0  0  0  0  0  0  0
    3.3613    1.4678    0.0000 C   0  0  0  0  0  0  0  0  0  0  0  0
    2.5730    1.7110    0.0000 C   0  0  0  0  0  0  0  0  0  0  0  0
    3.5449    0.6635    0.0000 C   0  0  0  0  0  0  0  0  0  0  0  0
    4.3492    0.4799    0.0000 N   0  0  0  0  0  0  0  0  0  0  0  0
    4.7072   -0.2634    0.0000 C   0  0  0  0  0  0  0  0  0  0  0  0
    4.3492   -1.0067    0.0000 C   0  0  0  0  0  0  0  0  0  0  0  0
    4.8636   -1.6517    0.0000 O   0  0  0  0  0  0  0  0  0  0  0  0
    3.5449   -1.1903    0.0000 N   0  0  0  0  0  0  0  0  0  0  0  0
    2.8999   -0.6759    0.0000 C   0  0  0  0  0  0  0  0  0  0  0  0
    2.8999    0.1491    0.0000 C   0  0  0  0  0  0  0  0  0  0  0  0
    2.1854    0.5616    0.0000 C   0  0  0  0  0  0  0  0  0  0  0  0
    1.4709    0.1491    0.0000 C   0  0  0  0  0  0  0  0  0  0  0  0
    1.4709   -0.6759    0.0000 C   0  0  0  0  0  0  0  0  0  0  0  0
    2.1854   -1.0884    0.0000 C   0  0  0  0  0  0  0  0  0  0  0  0
    0.7565    0.5616    0.0000 Cl  0  0  0  0  0  0  0  0  0  0  0  0
    5.5322   -0.2634    0.0000 O   0  0  0  0  0  0  0  0  0  0  0  0
    4.7544    1.7858    0.0000 Cl  0  0  0  0  0  0  0  0  0  0  0  0
  1  2  2  0
  2  3  1  0
  3  4  2  0
  4  5  1  0
  5  6  2  0
  1  6  1  0
  5  7  1  0
  7  8  2  0
  8  9  1  0
  9 10  1  0
 10 11  2  0
 10 12  1  0
 12 13  1  0
 13 14  2  0
  7 14  1  0
 14 15  1  0
 15 16  2  0
 16 17  1  0
 17 18  2  0
 13 18  1  0
 16 19  1  0
  9 20  1  0
  4 21  1  0
M  END
>  <name>  (243) 
lorazepam

>  <logBB>  (243) 
0.44

>  <logBB_class>  (243) 
1

>  <HAC>  (243) 
21

$$$$
MolID_3
     RDKit          2D

 22 23  0  0  0  0  0  0  0  0999 V2000
   -0.3315    3.2785    0.0000 C   0  0  0  0  0  0  0  0  0  0  0  0
    0.3830    3.6910    0.0000 N   0  0  0  0  0  0  0  0  0  0  0  0
    0.3830    4.5160    0.0000 C   0  0  0  0  0  0  0  0  0  0  0  0
    1.0974    4.9285    0.0000 N   0  0  0  0  0  0  0  0  0  0  0  0
    1.8119    4.5160    0.0000 C   0  0  0  0  0  0  0  0  0  0  0  0
    2.5264    4.9285    0.0000 C   0  0  0  0  0  0  0  0  0  0  0  0
    3.2409    4.5160    0.0000 C   0  0  0  0  0  0  0  0  0  0  0  0
    3.2409    3.6910    0.0000 C   0  0  0  0  0  0  0  0  0  0  0  0
    2.5264    3.2785    0.0000 C   0  0  0  0  0  0  0  0  0  0  0  0
    1.8119    3.6910    0.0000 C   0  0  0  0  0  0  0  0  0  0  0  0
    2.5264    2.4535    0.0000 C   0  0  0  0  0  0  0  0  0  0  0  0
    3.1938    1.9686    0.0000 C   0  0  0  0  0  0  0  0  0  0  0  0
    2.9389    1.1839    0.0000 S   0  0  0  0  0  0  0  0  0  0  0  0
    2.1139    1.1839    0.0000 C   0  0  0  0  0  0  0  0  0  0  0  0
    1.6290    0.5165    0.0000 N   0  0  0  0  0  0  0  0  0  0  0  0
    1.9645   -0.2372    0.0000 C   0  0  0  0  0  0  0  0  0  0  0  0
    1.4796   -0.9046    0.0000 N   0  0  0  0  0  0  0  0  0  0  0  0
    2.7850   -0.3234    0.0000 N   0  0  0  0  0  0  0  0  0  0  0  0
    1.8589    1.9686    0.0000 N   0  0  0  0  0  0  0  0  0  0  0  0
   -0.3315    4.9285    0.0000 N   0  0  0  0  0  0  0  0  0  0  0  0
   -1.0460    4.5160    0.0000 C   0  0  0  0  0  0  0  0  0  0  0  0
   -1.7604    4.1035    0.0000 N   0  0  0  0  0  0  0  0  0  0  0  0
  2  1  1  0
  2  3  2  3
  3  4  1  0
  4  5  1  0
  5  6  2  0
  6  7  1  0
  7  8  2  0
  8  9  1  0
  9 10  2  0
  5 10  1  0
  9 11  1  0
 11 12  2  0
 12 13  1  0
 13 14  1  0
 14 15  1  0
 15 16  1  0
 16 17  2  0
 16 18  1  0
 14 19  2  0
 11 19  1  0
  3 20  1  0
 20 21  1  0
 21 22  3  0
M  END
>  <name>  (244) 
13

>  <logBB>  (244) 
-1.54

>  <logBB_class>  (244) 
0

>  <HAC>  (244) 
22

$$$$
MolID_61
     RDKit          2D

 22 25  0  0  0  0  0  0  0  0999 V2000
    1.5618    0.2444    0.0000 C   0  0  0  0  0  0  0  0  0  0  0  0
    1.8816    1.0049    0.0000 C   0  0  0  0  0  0  0  0  0  0  0  0
    2.6848    1.1932    0.0000 N   0  0  0  0  0  0  0  0  0  0  0  0
    2.7540    2.0153    0.0000 N   0  0  0  0  0  0  0  0  0  0  0  0
    1.9935    2.3351    0.0000 C   0  0  0  0  0  0  0  0  0  0  0  0
    1.4543    1.7106    0.0000 N   0  0  0  0  0  0  0  0  0  0  0  0
    0.6299    1.7428    0.0000 C   0  0  0  0  0  0  0  0  0  0  0  0
    0.1411    2.4074    0.0000 C   0  0  0  0  0  0  0  0  0  0  0  0
   -0.6788    2.3164    0.0000 C   0  0  0  0  0  0  0  0  0  0  0  0
   -1.0100    1.5608    0.0000 C   0  0  0  0  0  0  0  0  0  0  0  0
   -0.5212    0.8962    0.0000 C   0  0  0  0  0  0  0  0  0  0  0  0
    0.2988    0.9872    0.0000 C   0  0  0  0  0  0  0  0  0  0  0  0
   -1.8299    1.4698    0.0000 Cl  0  0  0  0  0  0  0  0  0  0  0  0
    0.3560    3.2040    0.0000 C   0  0  0  0  0  0  0  0  0  0  0  0
    1.1127    3.5326    0.0000 N   0  0  0  0  0  0  0  0  0  0  0  0
    1.8414    3.1459    0.0000 C   0  0  0  0  0  0  0  0  0  0  0  0
   -0.2685    3.7431    0.0000 C   0  0  0  0  0  0  0  0  0  0  0  0
   -1.0476    3.4719    0.0000 C   0  0  0  0  0  0  0  0  0  0  0  0
   -1.6721    4.0111    0.0000 C   0  0  0  0  0  0  0  0  0  0  0  0
   -1.5174    4.8215    0.0000 C   0  0  0  0  0  0  0  0  0  0  0  0
   -0.7382    5.0927    0.0000 C   0  0  0  0  0  0  0  0  0  0  0  0
   -0.1138    4.5535    0.0000 C   0  0  0  0  0  0  0  0  0  0  0  0
  1  2  1  0
  2  3  2  0
  3  4  1  0
  4  5  2  0
  5  6  1  0
  2  6  1  0
  6  7  1  0
  7  8  2  0
  8  9  1  0
  9 10  2  0
 10 11  1  0
 11 12  2  0
  7 12  1  0
 10 13  1  0
  8 14  1  0
 14 15  2  0
 15 16  1  0
  5 16  1  0
 14 17  1  0
 17 18  2  0
 18 19  1  0
 19 20  2  0
 20 21  1  0
 21 22  2  0
 17 22  1  0
M  END
>  <name>  (245) 
alprazolam

>  <logBB>  (245) 
0.02

>  <logBB_class>  (245) 
1

>  <HAC>  (245) 
22

$$$$
MolID_77
     RDKit          2D

 22 25  0  0  0  0  0  0  0  0999 V2000
    0.2057    0.6331    0.0000 C   0  0  0  0  0  0  0  0  0  0  0  0
    0.0222   -0.1713    0.0000 C   0  0  0  0  0  0  0  0  0  0  0  0
   -0.7662   -0.4144    0.0000 C   0  0  0  0  0  0  0  0  0  0  0  0
   -0.9498   -1.2188    0.0000 C   0  0  0  0  0  0  0  0  0  0  0  0
   -0.3450   -1.7799    0.0000 C   0  0  0  0  0  0  0  0  0  0  0  0
    0.4433   -1.5367    0.0000 C   0  0  0  0  0  0  0  0  0  0  0  0
    0.6269   -0.7324    0.0000 C   0  0  0  0  0  0  0  0  0  0  0  0
    1.3702   -0.3745    0.0000 O   0  0  0  0  0  0  0  0  0  0  0  0
    2.1135   -0.7324    0.0000 C   0  0  0  0  0  0  0  0  0  0  0  0
    2.7183   -0.1713    0.0000 C   0  0  0  0  0  0  0  0  0  0  0  0
    3.5066   -0.4144    0.0000 C   0  0  0  0  0  0  0  0  0  0  0  0
    3.6902   -1.2188    0.0000 C   0  0  0  0  0  0  0  0  0  0  0  0
    3.0854   -1.7799    0.0000 C   0  0  0  0  0  0  0  0  0  0  0  0
    2.2971   -1.5367    0.0000 C   0  0  0  0  0  0  0  0  0  0  0  0
    1.7827   -2.1817    0.0000 C   0  0  0  0  0  0  0  0  0  0  0  0
    0.9577   -2.1817    0.0000 C   0  0  0  0  0  0  0  0  0  0  0  0
    0.5452   -2.8962    0.0000 C   0  0  0  0  0  0  0  0  0  0  0  0
    0.9577   -3.6107    0.0000 N   0  0  0  0  0  0  0  0  0  0  0  0
    1.7827   -3.6107    0.0000 C   0  0  0  0  0  0  0  0  0  0  0  0
    2.1952   -2.8962    0.0000 C   0  0  0  0  0  0  0  0  0  0  0  0
    0.5452   -4.3251    0.0000 C   0  0  0  0  0  0  0  0  0  0  0  0
    2.6054   -2.2434    0.0000 O   0  0  0  0  0  0  0  0  0  0  0  0
  1  2  1  0
  2  3  2  0
  3  4  1  0
  4  5  2  0
  5  6  1  0
  6  7  2  0
  2  7  1  0
  7  8  1  0
  8  9  1  0
  9 10  2  0
 10 11  1  0
 11 12  2  0
 12 13  1  0
 13 14  2  0
  9 14  1  0
 14 15  1  0
 15 16  1  0
  6 16  1  0
 16 17  1  0
 17 18  1  0
 18 19  1  0
 19 20  1  0
 15 20  1  0
 18 21  1  0
 15 22  1  0
M  END
>  <name>  (246) 
beloxepin

>  <logBB>  (246) 
0.82

>  <logBB_class>  (246) 
1

>  <HAC>  (246) 
22

$$$$
MolID_82
     RDKit          2D

 22 23  0  0  0  0  0  0  0  0999 V2000
    0.6758   -3.7254    0.0000 C   0  0  0  0  0  0  0  0  0  0  0  0
    1.3903   -4.1379    0.0000 C   0  0  0  0  0  0  0  0  0  0  0  0
    1.3903   -4.9629    0.0000 C   0  0  0  0  0  0  0  0  0  0  0  0
    2.1048   -3.7254    0.0000 N   0  0  0  0  0  0  0  0  0  0  0  0
    2.8193   -4.1379    0.0000 C   0  0  0  0  0  0  0  0  0  0  0  0
    3.5337   -3.7254    0.0000 C   0  0  0  0  0  0  0  0  0  0  0  0
    4.2482   -4.1379    0.0000 C   0  0  0  0  0  0  0  0  0  0  0  0
    4.9627   -3.7254    0.0000 O   0  0  0  0  0  0  0  0  0  0  0  0
    5.6771   -4.1379    0.0000 C   0  0  0  0  0  0  0  0  0  0  0  0
    6.3916   -3.7254    0.0000 C   0  0  0  0  0  0  0  0  0  0  0  0
    7.1061   -4.1379    0.0000 C   0  0  0  0  0  0  0  0  0  0  0  0
    7.1061   -4.9629    0.0000 C   0  0  0  0  0  0  0  0  0  0  0  0
    6.3916   -5.3754    0.0000 C   0  0  0  0  0  0  0  0  0  0  0  0
    5.6771   -4.9629    0.0000 C   0  0  0  0  0  0  0  0  0  0  0  0
    7.8206   -5.3754    0.0000 C   0  0  0  0  0  0  0  0  0  0  0  0
    8.5350   -4.9629    0.0000 C   0  0  0  0  0  0  0  0  0  0  0  0
    9.2495   -5.3754    0.0000 O   0  0  0  0  0  0  0  0  0  0  0  0
    9.9640   -4.9629    0.0000 C   0  0  0  0  0  0  0  0  0  0  0  0
   10.6784   -5.3754    0.0000 C   0  0  0  0  0  0  0  0  0  0  0  0
   11.5034   -5.3754    0.0000 C   0  0  0  0  0  0  0  0  0  0  0  0
   11.0909   -6.0899    0.0000 C   0  0  0  0  0  0  0  0  0  0  0  0
    3.5337   -2.9004    0.0000 O   0  0  0  0  0  0  0  0  0  0  0  0
  1  2  1  0
  2  3  1  0
  2  4  1  0
  4  5  1  0
  5  6  1  0
  6  7  1  0
  7  8  1  0
  8  9  1  0
  9 10  2  0
 10 11  1  0
 11 12  2  0
 12 13  1  0
 13 14  2  0
  9 14  1  0
 12 15  1  0
 15 16  1  0
 16 17  1  0
 17 18  1  0
 18 19  1  0
 19 20  1  0
 20 21  1  0
 19 21  1  0
  6 22  1  0
M  END
>  <name>  (247) 
betaxolol

>  <logBB>  (247) 
0.39

>  <logBB_class>  (247) 
1

>  <HAC>  (247) 
22

$$$$
MolID_128
     RDKit          2D

 22 24  0  0  0  0  0  0  0  0999 V2000
    1.7125   -1.4918    0.0000 C   0  0  0  0  0  0  0  0  0  0  0  0
    0.9279   -1.7468    0.0000 N   0  0  0  0  0  0  0  0  0  0  0  0
    0.6962   -0.8199    0.0000 C   0  0  0  0  0  0  0  0  0  0  0  0
    0.0511   -1.3343    0.0000 C   0  0  0  0  0  0  0  0  0  0  0  0
    0.0511   -2.1593    0.0000 C   0  0  0  0  0  0  0  0  0  0  0  0
    0.6962   -2.6737    0.0000 C   0  0  0  0  0  0  0  0  0  0  0  0
    1.5005   -2.4901    0.0000 C   0  0  0  0  0  0  0  0  0  0  0  0
    1.8584   -1.7468    0.0000 C   0  0  0  0  0  0  0  0  0  0  0  0
    1.5005   -1.0035    0.0000 C   0  0  0  0  0  0  0  0  0  0  0  0
    2.6834   -1.7468    0.0000 O   0  0  0  0  0  0  0  0  0  0  0  0
    3.0959   -1.0323    0.0000 C   0  0  0  0  0  0  0  0  0  0  0  0
    2.6834   -0.3178    0.0000 O   0  0  0  0  0  0  0  0  0  0  0  0
    3.9209   -1.0323    0.0000 C   0  0  0  0  0  0  0  0  0  0  0  0
    4.3334   -0.3178    0.0000 C   0  0  0  0  0  0  0  0  0  0  0  0
    5.1584   -0.3178    0.0000 C   0  0  0  0  0  0  0  0  0  0  0  0
    5.5709   -1.0323    0.0000 C   0  0  0  0  0  0  0  0  0  0  0  0
    5.1584   -1.7468    0.0000 C   0  0  0  0  0  0  0  0  0  0  0  0
    4.3334   -1.7468    0.0000 C   0  0  0  0  0  0  0  0  0  0  0  0
    2.0148   -3.1351    0.0000 C   0  0  0  0  0  0  0  0  0  0  0  0
    2.8306   -3.0121    0.0000 O   0  0  0  0  0  0  0  0  0  0  0  0
    1.7134   -3.9031    0.0000 O   0  0  0  0  0  0  0  0  0  0  0  0
    0.8977   -4.0260    0.0000 C   0  0  0  0  0  0  0  0  0  0  0  0
  1  2  1  0
  2  3  1  0
  3  4  1  0
  4  5  1  0
  5  6  1  0
  2  6  1  0
  6  7  1  0
  7  8  1  0
  8  9  1  0
  3  9  1  0
  8 10  1  0
 10 11  1  0
 11 12  2  0
 11 13  1  0
 13 14  2  0
 14 15  1  0
 15 16  2  0
 16 17  1  0
 17 18  2  0
 13 18  1  0
  7 19  1  0
 19 20  2  0
 19 21  1  0
 21 22  1  0
M  END
>  <name>  (248) 
cocaine

>  <logBB>  (248) 
0.6

>  <logBB_class>  (248) 
1

>  <HAC>  (248) 
22

$$$$
MolID_164
     RDKit          2D

 22 24  0  0  0  0  0  0  0  0999 V2000
   -2.2837   -0.5540    0.0000 C   0  0  0  0  0  0  0  0  0  0  0  0
   -1.5608   -0.1564    0.0000 C   0  0  0  0  0  0  0  0  0  0  0  0
   -0.8551   -0.5837    0.0000 O   0  0  0  0  0  0  0  0  0  0  0  0
   -0.1322   -0.1861    0.0000 C   0  0  0  0  0  0  0  0  0  0  0  0
   -0.1150    0.6387    0.0000 O   0  0  0  0  0  0  0  0  0  0  0  0
    0.5735   -0.6134    0.0000 C   0  0  0  0  0  0  0  0  0  0  0  0
    1.3340   -0.2936    0.0000 C   0  0  0  0  0  0  0  0  0  0  0  0
    1.4861    0.5173    0.0000 C   0  0  0  0  0  0  0  0  0  0  0  0
    2.2148    0.9040    0.0000 N   0  0  0  0  0  0  0  0  0  0  0  0
    2.9715    0.5753    0.0000 C   0  0  0  0  0  0  0  0  0  0  0  0
    3.5960    1.1144    0.0000 O   0  0  0  0  0  0  0  0  0  0  0  0
    3.1864   -0.2213    0.0000 C   0  0  0  0  0  0  0  0  0  0  0  0
    2.6976   -0.8858    0.0000 C   0  0  0  0  0  0  0  0  0  0  0  0
    1.8732   -0.9180    0.0000 N   0  0  0  0  0  0  0  0  0  0  0  0
    1.4459   -1.6238    0.0000 C   0  0  0  0  0  0  0  0  0  0  0  0
    0.6427   -1.4355    0.0000 N   0  0  0  0  0  0  0  0  0  0  0  0
    3.0287   -1.6415    0.0000 C   0  0  0  0  0  0  0  0  0  0  0  0
    3.8487   -1.7325    0.0000 C   0  0  0  0  0  0  0  0  0  0  0  0
    4.3375   -1.0679    0.0000 C   0  0  0  0  0  0  0  0  0  0  0  0
    4.0063   -0.3123    0.0000 C   0  0  0  0  0  0  0  0  0  0  0  0
    5.1575   -1.1589    0.0000 F   0  0  0  0  0  0  0  0  0  0  0  0
    2.1826    1.7283    0.0000 C   0  0  0  0  0  0  0  0  0  0  0  0
  1  2  1  0
  2  3  1  0
  3  4  1  0
  4  5  2  0
  4  6  1  0
  6  7  2  0
  7  8  1  0
  8  9  1  0
  9 10  1  0
 10 11  2  0
 10 12  1  0
 12 13  2  0
 13 14  1  0
  7 14  1  0
 14 15  1  0
 15 16  2  0
  6 16  1  0
 13 17  1  0
 17 18  2  0
 18 19  1  0
 19 20  2  0
 12 20  1  0
 19 21  1  0
  9 22  1  0
M  END
>  <name>  (249) 
flumazenil

>  <logBB>  (249) 
-0.29

>  <logBB_class>  (249) 
0

>  <HAC>  (249) 
22

$$$$
MolID_169
     RDKit          2D

 22 23  0  0  0  0  0  0  0  0999 V2000
    1.3572   -4.0849    0.0000 C   0  0  0  0  0  0  0  0  0  0  0  0
    2.0717   -3.6724    0.0000 N   0  0  0  0  0  0  0  0  0  0  0  0
    2.7861   -4.0849    0.0000 C   0  0  0  0  0  0  0  0  0  0  0  0
    3.5006   -3.6724    0.0000 C   0  0  0  0  0  0  0  0  0  0  0  0
    4.2151   -4.0849    0.0000 C   0  0  0  0  0  0  0  0  0  0  0  0
    4.2151   -4.9099    0.0000 C   0  0  0  0  0  0  0  0  0  0  0  0
    4.9295   -5.3224    0.0000 C   0  0  0  0  0  0  0  0  0  0  0  0
    4.9295   -6.1474    0.0000 C   0  0  0  0  0  0  0  0  0  0  0  0
    4.2151   -6.5599    0.0000 C   0  0  0  0  0  0  0  0  0  0  0  0
    3.5006   -6.1474    0.0000 C   0  0  0  0  0  0  0  0  0  0  0  0
    3.5006   -5.3224    0.0000 C   0  0  0  0  0  0  0  0  0  0  0  0
    4.9295   -3.6724    0.0000 O   0  0  0  0  0  0  0  0  0  0  0  0
    5.6440   -4.0849    0.0000 C   0  0  0  0  0  0  0  0  0  0  0  0
    6.3585   -3.6724    0.0000 C   0  0  0  0  0  0  0  0  0  0  0  0
    7.0730   -4.0849    0.0000 C   0  0  0  0  0  0  0  0  0  0  0  0
    7.0730   -4.9099    0.0000 C   0  0  0  0  0  0  0  0  0  0  0  0
    6.3585   -5.3224    0.0000 C   0  0  0  0  0  0  0  0  0  0  0  0
    5.6440   -4.9099    0.0000 C   0  0  0  0  0  0  0  0  0  0  0  0
    7.7874   -5.3224    0.0000 C   0  0  0  0  0  0  0  0  0  0  0  0
    8.5019   -5.7349    0.0000 F   0  0  0  0  0  0  0  0  0  0  0  0
    7.3749   -6.0369    0.0000 F   0  0  0  0  0  0  0  0  0  0  0  0
    8.1999   -4.6079    0.0000 F   0  0  0  0  0  0  0  0  0  0  0  0
  1  2  1  0
  2  3  1  0
  3  4  1  0
  4  5  1  0
  5  6  1  0
  6  7  2  0
  7  8  1  0
  8  9  2  0
  9 10  1  0
 10 11  2  0
  6 11  1  0
  5 12  1  0
 12 13  1  0
 13 14  2  0
 14 15  1  0
 15 16  2  0
 16 17  1  0
 17 18  2  0
 13 18  1  0
 16 19  1  0
 19 20  1  0
 19 21  1  0
 19 22  1  0
M  END
>  <name>  (250) 
fluoxetine

>  <logBB>  (250) 
0.72

>  <logBB_class>  (250) 
1

>  <HAC>  (250) 
22

$$$$
MolID_170
     RDKit          2D

 22 22  0  0  0  0  0  0  0  0999 V2000
    2.0975   -3.6329    0.0000 C   0  0  0  0  0  0  0  0  0  0  0  0
    2.8119   -4.0454    0.0000 O   0  0  0  0  0  0  0  0  0  0  0  0
    3.5264   -3.6329    0.0000 C   0  0  0  0  0  0  0  0  0  0  0  0
    4.2409   -4.0454    0.0000 C   0  0  0  0  0  0  0  0  0  0  0  0
    4.9554   -3.6329    0.0000 C   0  0  0  0  0  0  0  0  0  0  0  0
    5.6698   -4.0454    0.0000 C   0  0  0  0  0  0  0  0  0  0  0  0
    6.3843   -3.6329    0.0000 C   0  0  0  0  0  0  0  0  0  0  0  0
    6.3843   -2.8079    0.0000 N   0  0  0  0  0  0  0  0  0  0  0  0
    7.0988   -2.3954    0.0000 O   0  0  0  0  0  0  0  0  0  0  0  0
    7.0988   -1.5704    0.0000 C   0  0  0  0  0  0  0  0  0  0  0  0
    6.3843   -1.1579    0.0000 C   0  0  0  0  0  0  0  0  0  0  0  0
    6.3843   -0.3329    0.0000 N   0  0  0  0  0  0  0  0  0  0  0  0
    7.0988   -4.0454    0.0000 C   0  0  0  0  0  0  0  0  0  0  0  0
    7.8132   -3.6329    0.0000 C   0  0  0  0  0  0  0  0  0  0  0  0
    8.5277   -4.0454    0.0000 C   0  0  0  0  0  0  0  0  0  0  0  0
    8.5277   -4.8704    0.0000 C   0  0  0  0  0  0  0  0  0  0  0  0
    7.8132   -5.2829    0.0000 C   0  0  0  0  0  0  0  0  0  0  0  0
    7.0988   -4.8704    0.0000 C   0  0  0  0  0  0  0  0  0  0  0  0
    9.2422   -5.2829    0.0000 C   0  0  0  0  0  0  0  0  0  0  0  0
    9.9567   -5.6954    0.0000 F   0  0  0  0  0  0  0  0  0  0  0  0
    8.8297   -5.9974    0.0000 F   0  0  0  0  0  0  0  0  0  0  0  0
    9.6547   -4.5684    0.0000 F   0  0  0  0  0  0  0  0  0  0  0  0
  1  2  1  0
  2  3  1  0
  3  4  1  0
  4  5  1  0
  6  5  1  0
  6  7  1  0
  7  8  2  3
  8  9  1  0
  9 10  1  0
 10 11  1  0
 11 12  1  0
  7 13  1  0
 13 14  2  0
 14 15  1  0
 15 16  2  0
 16 17  1  0
 17 18  2  0
 13 18  1  0
 16 19  1  0
 19 20  1  0
 19 21  1  0
 19 22  1  0
M  END
>  <name>  (251) 
fluvoxamine

>  <logBB>  (251) 
0.79

>  <logBB_class>  (251) 
1

>  <HAC>  (251) 
22

$$$$
MolID_119
     RDKit          2D

 23 23  0  0  0  0  0  0  0  0999 V2000
    3.5498   -4.5488    0.0000 C   0  0  0  0  0  0  0  0  0  0  0  0
    2.8353   -4.1363    0.0000 C   0  0  0  0  0  0  0  0  0  0  0  0
    3.2478   -3.4218    0.0000 C   0  0  0  0  0  0  0  0  0  0  0  0
    2.4228   -4.8508    0.0000 C   0  0  0  0  0  0  0  0  0  0  0  0
    2.1209   -3.7238    0.0000 O   0  0  0  0  0  0  0  0  0  0  0  0
    2.1209   -2.8988    0.0000 C   0  0  0  0  0  0  0  0  0  0  0  0
    2.8353   -2.4863    0.0000 O   0  0  0  0  0  0  0  0  0  0  0  0
    1.4064   -2.4863    0.0000 C   0  0  0  0  0  0  0  0  0  0  0  0
    1.4064   -1.6613    0.0000 C   0  0  0  0  0  0  0  0  0  0  0  0
    0.6919   -1.2488    0.0000 C   0  0  0  0  0  0  0  0  0  0  0  0
    0.6919   -0.4238    0.0000 C   0  0  0  0  0  0  0  0  0  0  0  0
   -0.0226   -0.0113    0.0000 C   0  0  0  0  0  0  0  0  0  0  0  0
   -0.0226    0.8137    0.0000 C   0  0  0  0  0  0  0  0  0  0  0  0
    0.6919    1.2262    0.0000 C   0  0  0  0  0  0  0  0  0  0  0  0
    1.4064    0.8137    0.0000 C   0  0  0  0  0  0  0  0  0  0  0  0
    1.4064   -0.0113    0.0000 C   0  0  0  0  0  0  0  0  0  0  0  0
    0.6919    2.0512    0.0000 N   0  0  0  0  0  0  0  0  0  0  0  0
   -0.0226    2.4637    0.0000 C   0  0  0  0  0  0  0  0  0  0  0  0
   -0.0226    3.2887    0.0000 C   0  0  0  0  0  0  0  0  0  0  0  0
   -0.7370    3.7012    0.0000 Cl  0  0  0  0  0  0  0  0  0  0  0  0
    1.4064    2.4637    0.0000 C   0  0  0  0  0  0  0  0  0  0  0  0
    1.4064    3.2887    0.0000 C   0  0  0  0  0  0  0  0  0  0  0  0
    2.1209    3.7012    0.0000 Cl  0  0  0  0  0  0  0  0  0  0  0  0
  1  2  1  0
  2  3  1  0
  2  4  1  0
  2  5  1  0
  5  6  1  0
  6  7  2  0
  6  8  1  0
  8  9  1  0
  9 10  1  0
 10 11  1  0
 11 12  2  0
 12 13  1  0
 13 14  2  0
 14 15  1  0
 15 16  2  0
 11 16  1  0
 14 17  1  0
 17 18  1  0
 18 19  1  0
 19 20  1  0
 17 21  1  0
 21 22  1  0
 22 23  1  0
M  END
>  <name>  (252) 
chlorambucil-t-butylester

>  <logBB>  (252) 
1

>  <logBB_class>  (252) 
1

>  <HAC>  (252) 
23

$$$$
MolID_318
     RDKit          2D

 23 26  0  0  0  0  0  0  0  0999 V2000
    1.8722   -2.5175    0.0000 C   0  0  0  0  0  0  0  0  0  0  0  0
    1.5524   -1.7570    0.0000 C   0  0  0  0  0  0  0  0  0  0  0  0
    0.7492   -1.5687    0.0000 N   0  0  0  0  0  0  0  0  0  0  0  0
    0.6800   -0.7466    0.0000 N   0  0  0  0  0  0  0  0  0  0  0  0
    1.4405   -0.4268    0.0000 C   0  0  0  0  0  0  0  0  0  0  0  0
    1.5926    0.3841    0.0000 C   0  0  0  0  0  0  0  0  0  0  0  0
    2.3213    0.7708    0.0000 N   0  0  0  0  0  0  0  0  0  0  0  0
    3.0780    0.4421    0.0000 C   0  0  0  0  0  0  0  0  0  0  0  0
    3.2929   -0.3544    0.0000 C   0  0  0  0  0  0  0  0  0  0  0  0
    4.1128   -0.4455    0.0000 C   0  0  0  0  0  0  0  0  0  0  0  0
    4.4440   -1.2011    0.0000 C   0  0  0  0  0  0  0  0  0  0  0  0
    3.9552   -1.8657    0.0000 C   0  0  0  0  0  0  0  0  0  0  0  0
    3.1352   -1.7747    0.0000 C   0  0  0  0  0  0  0  0  0  0  0  0
    2.8041   -1.0190    0.0000 C   0  0  0  0  0  0  0  0  0  0  0  0
    1.9797   -1.0512    0.0000 N   0  0  0  0  0  0  0  0  0  0  0  0
    5.2640   -1.2921    0.0000 Cl  0  0  0  0  0  0  0  0  0  0  0  0
    3.7025    0.9813    0.0000 C   0  0  0  0  0  0  0  0  0  0  0  0
    3.5478    1.7916    0.0000 C   0  0  0  0  0  0  0  0  0  0  0  0
    4.1722    2.3308    0.0000 C   0  0  0  0  0  0  0  0  0  0  0  0
    4.9514    2.0596    0.0000 C   0  0  0  0  0  0  0  0  0  0  0  0
    5.1061    1.2492    0.0000 C   0  0  0  0  0  0  0  0  0  0  0  0
    4.4816    0.7101    0.0000 C   0  0  0  0  0  0  0  0  0  0  0  0
    4.6363   -0.1003    0.0000 Cl  0  0  0  0  0  0  0  0  0  0  0  0
  1  2  1  0
  2  3  2  0
  3  4  1  0
  4  5  2  0
  5  6  1  0
  6  7  1  0
  7  8  2  0
  8  9  1  0
  9 10  1  0
 10 11  1  0
 11 12  1  0
 12 13  1  0
 13 14  1  0
  9 14  1  0
 14 15  1  0
  2 15  1  0
  5 15  1  0
 11 16  1  0
  8 17  1  0
 17 18  2  0
 18 19  1  0
 19 20  2  0
 20 21  1  0
 21 22  2  0
 17 22  1  0
 22 23  1  0
M  END
>  <name>  (253) 
Triazolam

>  <logBB>  (253) 
0.57

>  <logBB_class>  (253) 
1

>  <HAC>  (253) 
23

$$$$
MolID_44
     RDKit          2D

 23 26  0  0  0  0  0  0  0  0999 V2000
    1.5530    0.2518    0.0000 C   0  0  0  0  0  0  0  0  0  0  0  0
    1.8728    1.0123    0.0000 C   0  0  0  0  0  0  0  0  0  0  0  0
    2.6760    1.2006    0.0000 N   0  0  0  0  0  0  0  0  0  0  0  0
    2.7452    2.0227    0.0000 N   0  0  0  0  0  0  0  0  0  0  0  0
    1.9847    2.3425    0.0000 C   0  0  0  0  0  0  0  0  0  0  0  0
    1.4455    1.7181    0.0000 N   0  0  0  0  0  0  0  0  0  0  0  0
    0.6211    1.7503    0.0000 C   0  0  0  0  0  0  0  0  0  0  0  0
    0.1323    2.4149    0.0000 C   0  0  0  0  0  0  0  0  0  0  0  0
   -0.6876    2.3238    0.0000 C   0  0  0  0  0  0  0  0  0  0  0  0
   -1.0188    1.5682    0.0000 C   0  0  0  0  0  0  0  0  0  0  0  0
   -0.5300    0.9036    0.0000 C   0  0  0  0  0  0  0  0  0  0  0  0
    0.2900    0.9947    0.0000 C   0  0  0  0  0  0  0  0  0  0  0  0
   -1.8388    1.4772    0.0000 Cl  0  0  0  0  0  0  0  0  0  0  0  0
    0.3472    3.2114    0.0000 C   0  0  0  0  0  0  0  0  0  0  0  0
    1.1039    3.5401    0.0000 N   0  0  0  0  0  0  0  0  0  0  0  0
    1.8326    3.1534    0.0000 C   0  0  0  0  0  0  0  0  0  0  0  0
    2.4972    3.6422    0.0000 O   0  0  0  0  0  0  0  0  0  0  0  0
   -0.2773    3.7506    0.0000 C   0  0  0  0  0  0  0  0  0  0  0  0
   -1.0564    3.4794    0.0000 C   0  0  0  0  0  0  0  0  0  0  0  0
   -1.6809    4.0185    0.0000 C   0  0  0  0  0  0  0  0  0  0  0  0
   -1.5262    4.8289    0.0000 C   0  0  0  0  0  0  0  0  0  0  0  0
   -0.7470    5.1001    0.0000 C   0  0  0  0  0  0  0  0  0  0  0  0
   -0.1226    4.5609    0.0000 C   0  0  0  0  0  0  0  0  0  0  0  0
  1  2  1  0
  2  3  2  0
  3  4  1  0
  4  5  2  0
  5  6  1  0
  2  6  1  0
  6  7  1  0
  7  8  2  0
  8  9  1  0
  9 10  2  0
 10 11  1  0
 11 12  2  0
  7 12  1  0
 10 13  1  0
  8 14  1  0
 14 15  2  0
 15 16  1  0
  5 16  1  0
 16 17  1  0
 14 18  1  0
 18 19  2  0
 19 20  1  0
 20 21  2  0
 21 22  1  0
 22 23  2  0
 18 23  1  0
M  END
>  <name>  (254) 
4-hydroxyalprazolam

>  <logBB>  (254) 
-1.48

>  <logBB_class>  (254) 
0

>  <HAC>  (254) 
23

$$$$
MolID_60
     RDKit          2D

 23 26  0  0  0  0  0  0  0  0999 V2000
    3.1217    3.3966    0.0000 C   0  0  0  0  0  0  0  0  0  0  0  0
    3.2737    2.5858    0.0000 C   0  0  0  0  0  0  0  0  0  0  0  0
    4.0342    2.2660    0.0000 N   0  0  0  0  0  0  0  0  0  0  0  0
    3.9650    1.4439    0.0000 N   0  0  0  0  0  0  0  0  0  0  0  0
    3.1618    1.2556    0.0000 C   0  0  0  0  0  0  0  0  0  0  0  0
    2.7345    1.9613    0.0000 N   0  0  0  0  0  0  0  0  0  0  0  0
    1.9102    1.9935    0.0000 C   0  0  0  0  0  0  0  0  0  0  0  0
    1.4214    2.6581    0.0000 C   0  0  0  0  0  0  0  0  0  0  0  0
    0.6014    2.5671    0.0000 C   0  0  0  0  0  0  0  0  0  0  0  0
    0.2703    1.8115    0.0000 C   0  0  0  0  0  0  0  0  0  0  0  0
    0.7591    1.1469    0.0000 C   0  0  0  0  0  0  0  0  0  0  0  0
    1.5790    1.2379    0.0000 C   0  0  0  0  0  0  0  0  0  0  0  0
   -0.5497    1.7205    0.0000 Cl  0  0  0  0  0  0  0  0  0  0  0  0
    1.6362    3.4547    0.0000 C   0  0  0  0  0  0  0  0  0  0  0  0
    2.3929    3.7833    0.0000 N   0  0  0  0  0  0  0  0  0  0  0  0
    1.0118    3.9938    0.0000 C   0  0  0  0  0  0  0  0  0  0  0  0
    0.2326    3.7226    0.0000 C   0  0  0  0  0  0  0  0  0  0  0  0
   -0.3918    4.2618    0.0000 C   0  0  0  0  0  0  0  0  0  0  0  0
   -0.2371    5.0721    0.0000 C   0  0  0  0  0  0  0  0  0  0  0  0
    0.5420    5.3434    0.0000 C   0  0  0  0  0  0  0  0  0  0  0  0
    1.1665    4.8042    0.0000 C   0  0  0  0  0  0  0  0  0  0  0  0
    2.8420    0.4951    0.0000 C   0  0  0  0  0  0  0  0  0  0  0  0
    3.3407   -0.1621    0.0000 O   0  0  0  0  0  0  0  0  0  0  0  0
  1  2  1  0
  2  3  2  0
  3  4  1  0
  4  5  2  0
  5  6  1  0
  2  6  1  0
  6  7  1  0
  7  8  2  0
  8  9  1  0
  9 10  2  0
 10 11  1  0
 11 12  2  0
  7 12  1  0
 10 13  1  0
  8 14  1  0
 14 15  2  0
  1 15  1  0
 14 16  1  0
 16 17  2  0
 17 18  1  0
 18 19  2  0
 19 20  1  0
 20 21  2  0
 16 21  1  0
  5 22  1  0
 22 23  1  0
M  END
>  <name>  (255) 
alpha-hydroxyalprazolam

>  <logBB>  (255) 
-1.28

>  <logBB_class>  (255) 
0

>  <HAC>  (255) 
23

$$$$
MolID_83
     RDKit          2D

 23 26  0  0  0  0  0  0  0  0999 V2000
   -2.7367   -1.2302    0.0000 C   0  0  0  0  0  0  0  0  0  0  0  0
   -2.0222   -0.8177    0.0000 C   0  0  0  0  0  0  0  0  0  0  0  0
   -1.3077   -1.2302    0.0000 C   0  0  0  0  0  0  0  0  0  0  0  0
   -1.3077   -2.0552    0.0000 N   0  0  0  0  0  0  0  0  0  0  0  0
   -2.0222   -2.4677    0.0000 C   0  0  0  0  0  0  0  0  0  0  0  0
   -2.7367   -2.0552    0.0000 C   0  0  0  0  0  0  0  0  0  0  0  0
   -0.5933   -2.4677    0.0000 C   0  0  0  0  0  0  0  0  0  0  0  0
   -0.5933   -3.2927    0.0000 C   0  0  0  0  0  0  0  0  0  0  0  0
    0.1212   -3.7052    0.0000 C   0  0  0  0  0  0  0  0  0  0  0  0
    0.8357   -4.1177    0.0000 C   0  0  0  0  0  0  0  0  0  0  0  0
    0.8357   -4.9427    0.0000 C   0  0  0  0  0  0  0  0  0  0  0  0
    1.5501   -5.3552    0.0000 C   0  0  0  0  0  0  0  0  0  0  0  0
    1.3439   -4.5302    0.0000 C   0  0  0  0  0  0  0  0  0  0  0  0
    1.5501   -3.7052    0.0000 C   0  0  0  0  0  0  0  0  0  0  0  0
    2.2646   -4.1177    0.0000 C   0  0  0  0  0  0  0  0  0  0  0  0
    2.2646   -4.9427    0.0000 C   0  0  0  0  0  0  0  0  0  0  0  0
   -0.2913   -4.4197    0.0000 C   0  0  0  0  0  0  0  0  0  0  0  0
    0.1212   -5.1341    0.0000 C   0  0  0  0  0  0  0  0  0  0  0  0
   -0.2913   -5.8486    0.0000 C   0  0  0  0  0  0  0  0  0  0  0  0
   -1.1163   -5.8486    0.0000 C   0  0  0  0  0  0  0  0  0  0  0  0
   -1.5288   -5.1341    0.0000 C   0  0  0  0  0  0  0  0  0  0  0  0
   -1.1163   -4.4197    0.0000 C   0  0  0  0  0  0  0  0  0  0  0  0
    0.5337   -2.9907    0.0000 O   0  0  0  0  0  0  0  0  0  0  0  0
  1  2  1  0
  2  3  1  0
  3  4  1  0
  4  5  1  0
  5  6  1  0
  1  6  1  0
  4  7  1  0
  7  8  1  0
  8  9  1  0
  9 10  1  0
 10 11  1  0
 11 12  1  0
 12 13  1  0
 13 14  1  0
 10 14  1  0
 14 15  1  0
 15 16  2  0
 12 16  1  0
  9 17  1  0
 17 18  2  0
 18 19  1  0
 19 20  2  0
 20 21  1  0
 21 22  2  0
 17 22  1  0
  9 23  1  0
M  END
>  <name>  (256) 
biperiden

>  <logBB>  (256) 
0.85

>  <logBB_class>  (256) 
1

>  <HAC>  (256) 
23

$$$$
MolID_112
     RDKit          2D

 23 25  0  0  0  0  0  0  0  0999 V2000
   -5.7265    0.0084    0.0000 C   0  0  0  0  0  0  0  0  0  0  0  0
   -5.7265    0.8334    0.0000 C   0  0  0  0  0  0  0  0  0  0  0  0
   -5.0121    1.2459    0.0000 C   0  0  0  0  0  0  0  0  0  0  0  0
   -4.2976    0.8334    0.0000 N   0  0  0  0  0  0  0  0  0  0  0  0
   -4.2976    0.0084    0.0000 C   0  0  0  0  0  0  0  0  0  0  0  0
   -5.0121   -0.4041    0.0000 C   0  0  0  0  0  0  0  0  0  0  0  0
   -3.5831    1.2459    0.0000 C   0  0  0  0  0  0  0  0  0  0  0  0
   -2.8687    0.8334    0.0000 C   0  0  0  0  0  0  0  0  0  0  0  0
   -2.1542    1.2459    0.0000 C   0  0  0  0  0  0  0  0  0  0  0  0
   -1.4397    0.8334    0.0000 C   0  0  0  0  0  0  0  0  0  0  0  0
   -1.4397    0.0084    0.0000 C   0  0  0  0  0  0  0  0  0  0  0  0
   -2.1542   -0.4041    0.0000 C   0  0  0  0  0  0  0  0  0  0  0  0
   -2.8687    0.0084    0.0000 C   0  0  0  0  0  0  0  0  0  0  0  0
   -0.7253    1.2459    0.0000 O   0  0  0  0  0  0  0  0  0  0  0  0
   -0.0108    0.8334    0.0000 C   0  0  0  0  0  0  0  0  0  0  0  0
    0.7037    1.2459    0.0000 C   0  0  0  0  0  0  0  0  0  0  0  0
    1.4182    0.8334    0.0000 C   0  0  0  0  0  0  0  0  0  0  0  0
    2.1326    1.2459    0.0000 N   0  0  0  0  0  0  0  0  0  0  0  0
    2.8471    0.8334    0.0000 C   0  0  0  0  0  0  0  0  0  0  0  0
    3.6008    1.1689    0.0000 N   0  0  0  0  0  0  0  0  0  0  0  0
    4.1528    0.5558    0.0000 C   0  0  0  0  0  0  0  0  0  0  0  0
    3.7403   -0.1587    0.0000 C   0  0  0  0  0  0  0  0  0  0  0  0
    2.9333    0.0129    0.0000 S   0  0  0  0  0  0  0  0  0  0  0  0
  1  2  1  0
  2  3  1  0
  3  4  1  0
  4  5  1  0
  5  6  1  0
  1  6  1  0
  4  7  1  0
  7  8  1  0
  8  9  2  0
  9 10  1  0
 10 11  2  0
 11 12  1  0
 12 13  2  0
  8 13  1  0
 10 14  1  0
 14 15  1  0
 15 16  1  0
 16 17  1  0
 17 18  1  0
 18 19  1  0
 19 20  2  0
 20 21  1  0
 21 22  2  0
 22 23  1  0
 19 23  1  0
M  END
>  <name>  (257) 
CHEBI338961

>  <logBB>  (257) 
0.44

>  <logBB_class>  (257) 
1

>  <HAC>  (257) 
23

$$$$
MolID_162
     RDKit          2D

 23 25  0  0  0  0  0  0  0  0999 V2000
    3.9672    1.3320    0.0000 F   0  0  0  0  0  0  0  0  0  0  0  0
    3.1472    1.4230    0.0000 C   0  0  0  0  0  0  0  0  0  0  0  0
    2.8160    2.1786    0.0000 C   0  0  0  0  0  0  0  0  0  0  0  0
    1.9961    2.2697    0.0000 C   0  0  0  0  0  0  0  0  0  0  0  0
    1.5073    1.6051    0.0000 C   0  0  0  0  0  0  0  0  0  0  0  0
    0.6829    1.5729    0.0000 N   0  0  0  0  0  0  0  0  0  0  0  0
    0.2556    0.8671    0.0000 C   0  0  0  0  0  0  0  0  0  0  0  0
   -0.5476    1.0554    0.0000 N   0  0  0  0  0  0  0  0  0  0  0  0
   -0.6168    1.8775    0.0000 C   0  0  0  0  0  0  0  0  0  0  0  0
   -1.3225    2.3048    0.0000 C   0  0  0  0  0  0  0  0  0  0  0  0
   -2.0454    1.9072    0.0000 O   0  0  0  0  0  0  0  0  0  0  0  0
   -2.7511    2.3345    0.0000 C   0  0  0  0  0  0  0  0  0  0  0  0
   -3.4740    1.9369    0.0000 C   0  0  0  0  0  0  0  0  0  0  0  0
   -2.7340    3.1593    0.0000 F   0  0  0  0  0  0  0  0  0  0  0  0
   -1.3053    3.1296    0.0000 O   0  0  0  0  0  0  0  0  0  0  0  0
    0.1437    2.1973    0.0000 C   0  0  0  0  0  0  0  0  0  0  0  0
    0.2958    3.0082    0.0000 C   0  0  0  0  0  0  0  0  0  0  0  0
    1.0245    3.3949    0.0000 N   0  0  0  0  0  0  0  0  0  0  0  0
    1.7812    3.0662    0.0000 C   0  0  0  0  0  0  0  0  0  0  0  0
    2.4057    3.6054    0.0000 O   0  0  0  0  0  0  0  0  0  0  0  0
    0.9923    4.2193    0.0000 C   0  0  0  0  0  0  0  0  0  0  0  0
    1.8384    0.8495    0.0000 C   0  0  0  0  0  0  0  0  0  0  0  0
    2.6584    0.7584    0.0000 C   0  0  0  0  0  0  0  0  0  0  0  0
  1  2  1  0
  2  3  2  0
  3  4  1  0
  4  5  2  0
  5  6  1  0
  6  7  1  0
  7  8  2  0
  8  9  1  0
  9 10  1  0
 10 11  1  0
 11 12  1  0
 12 13  1  0
 12 14  1  0
 10 15  2  0
  9 16  2  0
  6 16  1  0
 16 17  1  0
 17 18  1  0
 18 19  1  0
  4 19  1  0
 19 20  2  0
 18 21  1  0
  5 22  1  0
 22 23  2  0
  2 23  1  0
M  END
>  <name>  (258) 
FFMZ

>  <logBB>  (258) 
-0.09

>  <logBB_class>  (258) 
0

>  <HAC>  (258) 
23

$$$$
MolID_165
     RDKit          2D

 23 25  0  0  0  0  0  0  0  0999 V2000
    0.4377   -1.2793    0.0000 C   0  0  0  0  0  0  0  0  0  0  0  0
    0.6213   -0.4750    0.0000 N   0  0  0  0  0  0  0  0  0  0  0  0
   -0.0237    0.0394    0.0000 C   0  0  0  0  0  0  0  0  0  0  0  0
   -0.7382   -0.3731    0.0000 C   0  0  0  0  0  0  0  0  0  0  0  0
   -1.4527    0.0394    0.0000 C   0  0  0  0  0  0  0  0  0  0  0  0
   -1.4527    0.8644    0.0000 C   0  0  0  0  0  0  0  0  0  0  0  0
   -0.7382    1.2769    0.0000 C   0  0  0  0  0  0  0  0  0  0  0  0
   -0.0237    0.8644    0.0000 C   0  0  0  0  0  0  0  0  0  0  0  0
    0.6213    1.3788    0.0000 C   0  0  0  0  0  0  0  0  0  0  0  0
    1.4256    1.1952    0.0000 N   0  0  0  0  0  0  0  0  0  0  0  0
    1.7836    0.4519    0.0000 C   0  0  0  0  0  0  0  0  0  0  0  0
    1.4256   -0.2914    0.0000 C   0  0  0  0  0  0  0  0  0  0  0  0
    1.9400   -0.9364    0.0000 O   0  0  0  0  0  0  0  0  0  0  0  0
    0.4377    2.1831    0.0000 C   0  0  0  0  0  0  0  0  0  0  0  0
   -0.3506    2.4263    0.0000 C   0  0  0  0  0  0  0  0  0  0  0  0
   -0.5342    3.2306    0.0000 C   0  0  0  0  0  0  0  0  0  0  0  0
    0.0706    3.7917    0.0000 C   0  0  0  0  0  0  0  0  0  0  0  0
    0.8589    3.5485    0.0000 C   0  0  0  0  0  0  0  0  0  0  0  0
    1.0425    2.7442    0.0000 C   0  0  0  0  0  0  0  0  0  0  0  0
    1.8308    2.5011    0.0000 F   0  0  0  0  0  0  0  0  0  0  0  0
   -2.1671    1.2769    0.0000 N   0  0  0  0  0  0  0  0  0  0  0  0
   -2.8816    0.8644    0.0000 O   0  0  0  0  0  0  0  0  0  0  0  0
   -2.1671    2.1019    0.0000 O   0  0  0  0  0  0  0  0  0  0  0  0
  1  2  1  0
  2  3  1  0
  3  4  2  0
  4  5  1  0
  5  6  2  0
  6  7  1  0
  7  8  2  0
  3  8  1  0
  8  9  1  0
  9 10  2  0
 10 11  1  0
 11 12  1  0
  2 12  1  0
 12 13  2  0
  9 14  1  0
 14 15  2  0
 15 16  1  0
 16 17  2  0
 17 18  1  0
 18 19  2  0
 14 19  1  0
 19 20  1  0
  6 21  1  0
 21 22  2  0
 21 23  1  0
M  CHG  2  21   1  23  -1
M  END
>  <name>  (259) 
flunitrazepam

>  <logBB>  (259) 
0.06

>  <logBB_class>  (259) 
1

>  <HAC>  (259) 
23

>  <StandardizerResult>  (259) 
Transform (ID: Transform Nitro)

$$$$
MolID_173
     RDKit          2D

 23 26  0  0  0  0  0  0  0  0999 V2000
    2.2133   -2.4296    0.0000 C   0  0  0  0  0  0  0  0  0  0  0  0
    1.9584   -1.6450    0.0000 N   0  0  0  0  0  0  0  0  0  0  0  0
    1.0165   -1.0556    0.0000 C   0  0  0  0  0  0  0  0  0  0  0  0
    1.0812   -1.8781    0.0000 C   0  0  0  0  0  0  0  0  0  0  0  0
    1.7085   -2.4138    0.0000 C   0  0  0  0  0  0  0  0  0  0  0  0
    2.5310   -2.3491    0.0000 C   0  0  0  0  0  0  0  0  0  0  0  0
    3.0668   -1.7218    0.0000 C   0  0  0  0  0  0  0  0  0  0  0  0
    3.0021   -0.8993    0.0000 C   0  0  0  0  0  0  0  0  0  0  0  0
    2.3747   -0.3635    0.0000 C   0  0  0  0  0  0  0  0  0  0  0  0
    1.5523   -0.4283    0.0000 C   0  0  0  0  0  0  0  0  0  0  0  0
    2.6297    0.4211    0.0000 N   0  0  0  0  0  0  0  0  0  0  0  0
    3.4366    0.5926    0.0000 C   0  0  0  0  0  0  0  0  0  0  0  0
    3.9887   -0.0205    0.0000 O   0  0  0  0  0  0  0  0  0  0  0  0
    3.6916    1.3772    0.0000 C   0  0  0  0  0  0  0  0  0  0  0  0
    3.2066    2.0447    0.0000 N   0  0  0  0  0  0  0  0  0  0  0  0
    3.6916    2.7121    0.0000 N   0  0  0  0  0  0  0  0  0  0  0  0
    4.4762    2.4572    0.0000 C   0  0  0  0  0  0  0  0  0  0  0  0
    5.1907    2.8697    0.0000 C   0  0  0  0  0  0  0  0  0  0  0  0
    5.9051    2.4572    0.0000 C   0  0  0  0  0  0  0  0  0  0  0  0
    5.9051    1.6322    0.0000 C   0  0  0  0  0  0  0  0  0  0  0  0
    5.1907    1.2197    0.0000 C   0  0  0  0  0  0  0  0  0  0  0  0
    4.4762    1.6322    0.0000 C   0  0  0  0  0  0  0  0  0  0  0  0
    3.4366    3.4967    0.0000 C   0  0  0  0  0  0  0  0  0  0  0  0
  1  2  1  0
  2  3  1  0
  3  4  1  0
  4  5  1  0
  5  6  1  0
  6  7  1  0
  2  7  1  0
  7  8  1  0
  8  9  1  0
  9 10  1  0
  3 10  1  0
  9 11  1  0
 11 12  1  0
 12 13  2  0
 12 14  1  0
 14 15  2  0
 15 16  1  0
 16 17  1  0
 17 18  2  0
 18 19  1  0
 19 20  2  0
 20 21  1  0
 21 22  2  0
 17 22  1  0
 14 22  1  0
 16 23  1  0
M  END
>  <name>  (260) 
granisetron

>  <logBB>  (260) 
-0.69

>  <logBB_class>  (260) 
0

>  <HAC>  (260) 
23

$$$$
MolID_19
     RDKit          2D

 24 27  0  0  0  0  0  0  0  0999 V2000
    3.1248    3.3978    0.0000 C   0  0  0  0  0  0  0  0  0  0  0  0
    3.2768    2.5869    0.0000 C   0  0  0  0  0  0  0  0  0  0  0  0
    4.0373    2.2671    0.0000 C   0  0  0  0  0  0  0  0  0  0  0  0
    3.9682    1.4450    0.0000 N   0  0  0  0  0  0  0  0  0  0  0  0
    3.1649    1.2567    0.0000 C   0  0  0  0  0  0  0  0  0  0  0  0
    2.7377    1.9624    0.0000 N   0  0  0  0  0  0  0  0  0  0  0  0
    1.9133    1.9946    0.0000 C   0  0  0  0  0  0  0  0  0  0  0  0
    1.4245    2.6592    0.0000 C   0  0  0  0  0  0  0  0  0  0  0  0
    0.6045    2.5682    0.0000 C   0  0  0  0  0  0  0  0  0  0  0  0
    0.2734    1.8126    0.0000 C   0  0  0  0  0  0  0  0  0  0  0  0
    0.7622    1.1480    0.0000 C   0  0  0  0  0  0  0  0  0  0  0  0
    1.5821    1.2390    0.0000 C   0  0  0  0  0  0  0  0  0  0  0  0
   -0.5466    1.7216    0.0000 Cl  0  0  0  0  0  0  0  0  0  0  0  0
    1.6393    3.4558    0.0000 C   0  0  0  0  0  0  0  0  0  0  0  0
    2.3960    3.7845    0.0000 N   0  0  0  0  0  0  0  0  0  0  0  0
    1.0149    3.9949    0.0000 C   0  0  0  0  0  0  0  0  0  0  0  0
    0.2357    3.7237    0.0000 C   0  0  0  0  0  0  0  0  0  0  0  0
   -0.3887    4.2629    0.0000 C   0  0  0  0  0  0  0  0  0  0  0  0
   -0.2340    5.0733    0.0000 C   0  0  0  0  0  0  0  0  0  0  0  0
    0.5451    5.3445    0.0000 C   0  0  0  0  0  0  0  0  0  0  0  0
    1.1696    4.8053    0.0000 C   0  0  0  0  0  0  0  0  0  0  0  0
    1.9487    5.0765    0.0000 F   0  0  0  0  0  0  0  0  0  0  0  0
    2.8451    0.4962    0.0000 C   0  0  0  0  0  0  0  0  0  0  0  0
    3.3438   -0.1610    0.0000 O   0  0  0  0  0  0  0  0  0  0  0  0
  1  2  1  0
  2  3  2  0
  3  4  1  0
  4  5  2  0
  5  6  1  0
  2  6  1  0
  6  7  1  0
  7  8  2  0
  8  9  1  0
  9 10  2  0
 10 11  1  0
 11 12  2  0
  7 12  1  0
 10 13  1  0
  8 14  1  0
 14 15  2  0
  1 15  1  0
 14 16  1  0
 16 17  2  0
 17 18  1  0
 18 19  2  0
 19 20  1  0
 20 21  2  0
 16 21  1  0
 21 22  1  0
  5 23  1  0
 23 24  1  0
M  END
>  <name>  (261) 
1-hydroxymidazolam

>  <logBB>  (261) 
-0.08

>  <logBB_class>  (261) 
0

>  <HAC>  (261) 
24

$$$$
MolID_45
     RDKit          2D

 24 27  0  0  0  0  0  0  0  0999 V2000
    1.5550    0.2514    0.0000 C   0  0  0  0  0  0  0  0  0  0  0  0
    1.8748    1.0118    0.0000 C   0  0  0  0  0  0  0  0  0  0  0  0
    2.6781    1.2001    0.0000 N   0  0  0  0  0  0  0  0  0  0  0  0
    2.7472    2.0222    0.0000 C   0  0  0  0  0  0  0  0  0  0  0  0
    1.9867    2.3420    0.0000 C   0  0  0  0  0  0  0  0  0  0  0  0
    1.4476    1.7176    0.0000 N   0  0  0  0  0  0  0  0  0  0  0  0
    0.6232    1.7498    0.0000 C   0  0  0  0  0  0  0  0  0  0  0  0
    0.1344    2.4144    0.0000 C   0  0  0  0  0  0  0  0  0  0  0  0
   -0.6856    2.3234    0.0000 C   0  0  0  0  0  0  0  0  0  0  0  0
   -1.0167    1.5677    0.0000 C   0  0  0  0  0  0  0  0  0  0  0  0
   -0.5279    0.9031    0.0000 C   0  0  0  0  0  0  0  0  0  0  0  0
    0.2920    0.9942    0.0000 C   0  0  0  0  0  0  0  0  0  0  0  0
   -1.8367    1.4767    0.0000 Cl  0  0  0  0  0  0  0  0  0  0  0  0
    0.3492    3.2109    0.0000 C   0  0  0  0  0  0  0  0  0  0  0  0
    1.1059    3.5396    0.0000 N   0  0  0  0  0  0  0  0  0  0  0  0
    1.8347    3.1529    0.0000 C   0  0  0  0  0  0  0  0  0  0  0  0
    2.4993    3.6417    0.0000 O   0  0  0  0  0  0  0  0  0  0  0  0
   -0.2752    3.7501    0.0000 C   0  0  0  0  0  0  0  0  0  0  0  0
   -1.0544    3.4789    0.0000 C   0  0  0  0  0  0  0  0  0  0  0  0
   -1.6788    4.0180    0.0000 C   0  0  0  0  0  0  0  0  0  0  0  0
   -1.5241    4.8284    0.0000 C   0  0  0  0  0  0  0  0  0  0  0  0
   -0.7450    5.0996    0.0000 C   0  0  0  0  0  0  0  0  0  0  0  0
   -0.1205    4.5604    0.0000 C   0  0  0  0  0  0  0  0  0  0  0  0
    0.6586    4.8316    0.0000 F   0  0  0  0  0  0  0  0  0  0  0  0
  1  2  1  0
  2  3  2  0
  3  4  1  0
  4  5  2  0
  5  6  1  0
  2  6  1  0
  6  7  1  0
  7  8  2  0
  8  9  1  0
  9 10  2  0
 10 11  1  0
 11 12  2  0
  7 12  1  0
 10 13  1  0
  8 14  1  0
 14 15  2  0
 15 16  1  0
  5 16  1  0
 16 17  1  0
 14 18  1  0
 18 19  2  0
 19 20  1  0
 20 21  2  0
 21 22  1  0
 22 23  2  0
 18 23  1  0
 23 24  1  0
M  END
>  <name>  (262) 
4-hydroxymidazolam

>  <logBB>  (262) 
-0.22

>  <logBB_class>  (262) 
0

>  <HAC>  (262) 
24

$$$$
MolID_53
     RDKit          2D

 24 24  0  0  0  0  0  0  0  0999 V2000
   -3.7348   -1.2401    0.0000 C   0  0  0  0  0  0  0  0  0  0  0  0
   -3.0204   -0.8276    0.0000 C   0  0  0  0  0  0  0  0  0  0  0  0
   -3.0204   -0.0026    0.0000 C   0  0  0  0  0  0  0  0  0  0  0  0
   -2.3059    0.4099    0.0000 C   0  0  0  0  0  0  0  0  0  0  0  0
   -1.5914   -0.0026    0.0000 O   0  0  0  0  0  0  0  0  0  0  0  0
   -2.3059    1.2349    0.0000 N   0  0  0  0  0  0  0  0  0  0  0  0
   -1.5914    1.6474    0.0000 C   0  0  0  0  0  0  0  0  0  0  0  0
   -1.5914    2.4724    0.0000 C   0  0  0  0  0  0  0  0  0  0  0  0
   -0.8769    2.8849    0.0000 C   0  0  0  0  0  0  0  0  0  0  0  0
   -0.1625    2.4724    0.0000 C   0  0  0  0  0  0  0  0  0  0  0  0
   -0.1625    1.6474    0.0000 C   0  0  0  0  0  0  0  0  0  0  0  0
   -0.8769    1.2349    0.0000 C   0  0  0  0  0  0  0  0  0  0  0  0
    0.5520    2.8849    0.0000 O   0  0  0  0  0  0  0  0  0  0  0  0
    1.2665    2.4724    0.0000 C   0  0  0  0  0  0  0  0  0  0  0  0
    1.9809    2.8849    0.0000 C   0  0  0  0  0  0  0  0  0  0  0  0
    2.6954    2.4724    0.0000 C   0  0  0  0  0  0  0  0  0  0  0  0
    3.4099    2.8849    0.0000 N   0  0  0  0  0  0  0  0  0  0  0  0
    4.1244    2.4724    0.0000 C   0  0  0  0  0  0  0  0  0  0  0  0
    4.8388    2.8849    0.0000 C   0  0  0  0  0  0  0  0  0  0  0  0
    4.1244    1.6474    0.0000 C   0  0  0  0  0  0  0  0  0  0  0  0
    1.9809    3.7099    0.0000 O   0  0  0  0  0  0  0  0  0  0  0  0
   -0.8769    3.7099    0.0000 C   0  0  0  0  0  0  0  0  0  0  0  0
   -0.1625    4.1224    0.0000 O   0  0  0  0  0  0  0  0  0  0  0  0
   -1.5914    4.1224    0.0000 C   0  0  0  0  0  0  0  0  0  0  0  0
  1  2  1  0
  2  3  1  0
  3  4  1  0
  4  5  2  0
  4  6  1  0
  6  7  1  0
  7  8  2  0
  8  9  1  0
  9 10  2  0
 10 11  1  0
 11 12  2  0
  7 12  1  0
 10 13  1  0
 13 14  1  0
 14 15  1  0
 15 16  1  0
 16 17  1  0
 17 18  1  0
 18 19  1  0
 18 20  1  0
 15 21  1  0
  9 22  1  0
 22 23  2  0
 22 24  1  0
M  END
>  <name>  (263) 
acetaminophen

>  <logBB>  (263) 
-0.37

>  <logBB_class>  (263) 
0

>  <HAC>  (263) 
24

$$$$
MolID_105
     RDKit          2D

 24 26  0  0  0  0  0  0  0  0999 V2000
   -2.8680   -4.9421    0.0000 C   0  0  0  0  0  0  0  0  0  0  0  0
   -2.8680   -4.1171    0.0000 C   0  0  0  0  0  0  0  0  0  0  0  0
   -2.1536   -3.7046    0.0000 C   0  0  0  0  0  0  0  0  0  0  0  0
   -1.4391   -4.1171    0.0000 N   0  0  0  0  0  0  0  0  0  0  0  0
   -1.4391   -4.9421    0.0000 C   0  0  0  0  0  0  0  0  0  0  0  0
   -2.1536   -5.3546    0.0000 C   0  0  0  0  0  0  0  0  0  0  0  0
   -0.7246   -3.7046    0.0000 C   0  0  0  0  0  0  0  0  0  0  0  0
   -0.0101   -4.1171    0.0000 C   0  0  0  0  0  0  0  0  0  0  0  0
    0.7043   -3.7046    0.0000 C   0  0  0  0  0  0  0  0  0  0  0  0
    1.4188   -4.1171    0.0000 C   0  0  0  0  0  0  0  0  0  0  0  0
    1.4188   -4.9421    0.0000 C   0  0  0  0  0  0  0  0  0  0  0  0
    0.7043   -5.3546    0.0000 C   0  0  0  0  0  0  0  0  0  0  0  0
   -0.0101   -4.9421    0.0000 C   0  0  0  0  0  0  0  0  0  0  0  0
    2.1333   -3.7046    0.0000 O   0  0  0  0  0  0  0  0  0  0  0  0
    2.8477   -4.1171    0.0000 C   0  0  0  0  0  0  0  0  0  0  0  0
    3.5622   -3.7046    0.0000 C   0  0  0  0  0  0  0  0  0  0  0  0
    4.2767   -4.1171    0.0000 C   0  0  0  0  0  0  0  0  0  0  0  0
    4.9912   -3.7046    0.0000 N   0  0  0  0  0  0  0  0  0  0  0  0
    5.7056   -4.1171    0.0000 C   0  0  0  0  0  0  0  0  0  0  0  0
    6.4201   -3.7046    0.0000 C   0  0  0  0  0  0  0  0  0  0  0  0
    7.1346   -4.1171    0.0000 C   0  0  0  0  0  0  0  0  0  0  0  0
    7.1346   -4.9421    0.0000 C   0  0  0  0  0  0  0  0  0  0  0  0
    6.4201   -5.3546    0.0000 C   0  0  0  0  0  0  0  0  0  0  0  0
    5.7056   -4.9421    0.0000 N   0  0  0  0  0  0  0  0  0  0  0  0
  1  2  1  0
  2  3  1  0
  3  4  1  0
  4  5  1  0
  5  6  1  0
  1  6  1  0
  4  7  1  0
  7  8  1  0
  8  9  2  0
  9 10  1  0
 10 11  2  0
 11 12  1  0
 12 13  2  0
  8 13  1  0
 10 14  1  0
 14 15  1  0
 15 16  1  0
 16 17  1  0
 17 18  1  0
 18 19  1  0
 19 20  2  0
 20 21  1  0
 21 22  2  0
 22 23  1  0
 23 24  2  0
 19 24  1  0
M  END
>  <name>  (264) 
CHEBI338033

>  <logBB>  (264) 
0.69

>  <logBB_class>  (264) 
1

>  <HAC>  (264) 
24

$$$$
MolID_166
     RDKit          2D

 24 26  0  0  0  0  0  0  0  0999 V2000
   -2.3052   -0.5772    0.0000 C   0  0  0  0  0  0  0  0  0  0  0  0
   -1.5823   -0.1797    0.0000 C   0  0  0  0  0  0  0  0  0  0  0  0
   -0.8766   -0.6070    0.0000 O   0  0  0  0  0  0  0  0  0  0  0  0
   -0.1537   -0.2094    0.0000 C   0  0  0  0  0  0  0  0  0  0  0  0
   -0.1365    0.6154    0.0000 O   0  0  0  0  0  0  0  0  0  0  0  0
    0.5521   -0.6367    0.0000 C   0  0  0  0  0  0  0  0  0  0  0  0
    1.3126   -0.3169    0.0000 C   0  0  0  0  0  0  0  0  0  0  0  0
    1.4646    0.4940    0.0000 C   0  0  0  0  0  0  0  0  0  0  0  0
    2.1934    0.8807    0.0000 N   0  0  0  0  0  0  0  0  0  0  0  0
    2.9501    0.5520    0.0000 C   0  0  0  0  0  0  0  0  0  0  0  0
    3.5745    1.0912    0.0000 O   0  0  0  0  0  0  0  0  0  0  0  0
    3.1649   -0.2445    0.0000 C   0  0  0  0  0  0  0  0  0  0  0  0
    2.6761   -0.9091    0.0000 C   0  0  0  0  0  0  0  0  0  0  0  0
    1.8517   -0.9413    0.0000 N   0  0  0  0  0  0  0  0  0  0  0  0
    1.4244   -1.6470    0.0000 C   0  0  0  0  0  0  0  0  0  0  0  0
    0.6212   -1.4588    0.0000 N   0  0  0  0  0  0  0  0  0  0  0  0
    3.0072   -1.6647    0.0000 C   0  0  0  0  0  0  0  0  0  0  0  0
    3.8272   -1.7558    0.0000 C   0  0  0  0  0  0  0  0  0  0  0  0
    4.3160   -1.0912    0.0000 C   0  0  0  0  0  0  0  0  0  0  0  0
    3.9849   -0.3355    0.0000 C   0  0  0  0  0  0  0  0  0  0  0  0
    5.1360   -1.1822    0.0000 F   0  0  0  0  0  0  0  0  0  0  0  0
    2.1612    1.7051    0.0000 C   0  0  0  0  0  0  0  0  0  0  0  0
    1.4311    2.0894    0.0000 C   0  0  0  0  0  0  0  0  0  0  0  0
    1.3989    2.9137    0.0000 F   0  0  0  0  0  0  0  0  0  0  0  0
  1  2  1  0
  2  3  1  0
  3  4  1  0
  4  5  2  0
  4  6  1  0
  6  7  2  0
  7  8  1  0
  8  9  1  0
  9 10  1  0
 10 11  2  0
 10 12  1  0
 12 13  2  0
 13 14  1  0
  7 14  1  0
 14 15  1  0
 15 16  2  0
  6 16  1  0
 13 17  1  0
 17 18  2  0
 18 19  1  0
 19 20  2  0
 12 20  1  0
 19 21  1  0
  9 22  1  0
 22 23  1  0
 23 24  1  0
M  END
>  <name>  (265) 
fluoroethylflumazenil

>  <logBB>  (265) 
-0.14

>  <logBB_class>  (265) 
0

>  <HAC>  (265) 
24

$$$$
MolID_103
     RDKit          2D

 25 28  0  0  0  0  0  0  0  0999 V2000
   -2.1589    1.6927    0.0000 C   0  0  0  0  0  0  0  0  0  0  0  0
   -1.3404    1.5894    0.0000 C   0  0  0  0  0  0  0  0  0  0  0  0
   -0.8417    2.2467    0.0000 C   0  0  0  0  0  0  0  0  0  0  0  0
   -1.0206    0.8290    0.0000 C   0  0  0  0  0  0  0  0  0  0  0  0
   -0.2174    0.6407    0.0000 N   0  0  0  0  0  0  0  0  0  0  0  0
   -0.1482   -0.1814    0.0000 C   0  0  0  0  0  0  0  0  0  0  0  0
   -0.9087   -0.5012    0.0000 N   0  0  0  0  0  0  0  0  0  0  0  0
   -1.4479    0.1232    0.0000 O   0  0  0  0  0  0  0  0  0  0  0  0
    0.5575   -0.6087    0.0000 C   0  0  0  0  0  0  0  0  0  0  0  0
    1.3180   -0.2889    0.0000 C   0  0  0  0  0  0  0  0  0  0  0  0
    1.4700    0.5220    0.0000 C   0  0  0  0  0  0  0  0  0  0  0  0
    2.1988    0.9087    0.0000 N   0  0  0  0  0  0  0  0  0  0  0  0
    2.9555    0.5800    0.0000 C   0  0  0  0  0  0  0  0  0  0  0  0
    3.5799    1.1192    0.0000 O   0  0  0  0  0  0  0  0  0  0  0  0
    3.1703   -0.2165    0.0000 C   0  0  0  0  0  0  0  0  0  0  0  0
    2.6815   -0.8811    0.0000 C   0  0  0  0  0  0  0  0  0  0  0  0
    1.8571   -0.9133    0.0000 N   0  0  0  0  0  0  0  0  0  0  0  0
    1.4299   -1.6191    0.0000 C   0  0  0  0  0  0  0  0  0  0  0  0
    0.6266   -1.4308    0.0000 N   0  0  0  0  0  0  0  0  0  0  0  0
    3.0127   -1.6367    0.0000 C   0  0  0  0  0  0  0  0  0  0  0  0
    3.8326   -1.7278    0.0000 C   0  0  0  0  0  0  0  0  0  0  0  0
    4.3214   -1.0632    0.0000 C   0  0  0  0  0  0  0  0  0  0  0  0
    3.9903   -0.3075    0.0000 C   0  0  0  0  0  0  0  0  0  0  0  0
    4.4791    0.3571    0.0000 Cl  0  0  0  0  0  0  0  0  0  0  0  0
    2.1666    1.7331    0.0000 C   0  0  0  0  0  0  0  0  0  0  0  0
  1  2  1  0
  2  3  1  0
  2  4  1  0
  4  5  2  0
  5  6  1  0
  6  7  2  0
  7  8  1  0
  4  8  1  0
  6  9  1  0
  9 10  2  0
 10 11  1  0
 11 12  1  0
 12 13  1  0
 13 14  2  0
 13 15  1  0
 15 16  2  0
 16 17  1  0
 10 17  1  0
 17 18  1  0
 18 19  2  0
  9 19  1  0
 16 20  1  0
 20 21  2  0
 21 22  1  0
 22 23  2  0
 15 23  1  0
 23 24  1  0
 12 25  1  0
M  END
>  <name>  (266) 
CHEBI218555

>  <logBB>  (266) 
-0.3

>  <logBB_class>  (266) 
0

>  <HAC>  (266) 
25

$$$$
MolID_161
     RDKit          2D

 25 27  0  0  0  0  0  0  0  0999 V2000
    0.7260   -1.3798    0.0000 C   0  0  0  0  0  0  0  0  0  0  0  0
    0.7260   -0.5548    0.0000 C   0  0  0  0  0  0  0  0  0  0  0  0
    1.4405   -0.1423    0.0000 C   0  0  0  0  0  0  0  0  0  0  0  0
    1.4405    0.6827    0.0000 O   0  0  0  0  0  0  0  0  0  0  0  0
    2.1550   -0.5548    0.0000 N   0  0  0  0  0  0  0  0  0  0  0  0
    2.1550   -1.3798    0.0000 C   0  0  0  0  0  0  0  0  0  0  0  0
    2.8695   -1.7923    0.0000 C   0  0  0  0  0  0  0  0  0  0  0  0
    2.8695   -2.6173    0.0000 C   0  0  0  0  0  0  0  0  0  0  0  0
    2.1550   -3.0298    0.0000 N   0  0  0  0  0  0  0  0  0  0  0  0
    1.4405   -2.6173    0.0000 C   0  0  0  0  0  0  0  0  0  0  0  0
    1.4405   -1.7923    0.0000 C   0  0  0  0  0  0  0  0  0  0  0  0
    2.1550   -3.8548    0.0000 C   0  0  0  0  0  0  0  0  0  0  0  0
    1.4405   -4.2673    0.0000 C   0  0  0  0  0  0  0  0  0  0  0  0
    1.4405   -5.0923    0.0000 C   0  0  0  0  0  0  0  0  0  0  0  0
    2.1550   -5.5048    0.0000 C   0  0  0  0  0  0  0  0  0  0  0  0
    2.1550   -6.3298    0.0000 C   0  0  0  0  0  0  0  0  0  0  0  0
    1.4405   -6.7423    0.0000 C   0  0  0  0  0  0  0  0  0  0  0  0
    0.7260   -6.3298    0.0000 C   0  0  0  0  0  0  0  0  0  0  0  0
    0.7260   -5.5048    0.0000 C   0  0  0  0  0  0  0  0  0  0  0  0
    2.8695   -0.1423    0.0000 C   0  0  0  0  0  0  0  0  0  0  0  0
    2.8695    0.6827    0.0000 C   0  0  0  0  0  0  0  0  0  0  0  0
    3.5839    1.0952    0.0000 C   0  0  0  0  0  0  0  0  0  0  0  0
    4.2984    0.6827    0.0000 C   0  0  0  0  0  0  0  0  0  0  0  0
    4.2984   -0.1423    0.0000 C   0  0  0  0  0  0  0  0  0  0  0  0
    3.5839   -0.5548    0.0000 C   0  0  0  0  0  0  0  0  0  0  0  0
  1  2  1  0
  2  3  1  0
  3  4  2  0
  3  5  1  0
  5  6  1  0
  6  7  1  0
  7  8  1  0
  8  9  1  0
  9 10  1  0
 10 11  1  0
  6 11  1  0
  9 12  1  0
 12 13  1  0
 13 14  1  0
 14 15  2  0
 15 16  1  0
 16 17  2  0
 17 18  1  0
 18 19  2  0
 14 19  1  0
  5 20  1  0
 20 21  2  0
 21 22  1  0
 22 23  2  0
 23 24  1  0
 24 25  2  0
 20 25  1  0
M  END
>  <name>  (267) 
fentanyl

>  <logBB>  (267) 
0.59

>  <logBB_class>  (267) 
1

>  <HAC>  (267) 
25

$$$$
MolID_184
     RDKit          2D

 25 27  0  0  0  0  0  0  0  0999 V2000
   -1.3447   -0.7316    0.0000 C   0  0  0  0  0  0  0  0  0  0  0  0
   -0.5197   -0.7316    0.0000 C   0  0  0  0  0  0  0  0  0  0  0  0
   -0.0348   -1.3990    0.0000 C   0  0  0  0  0  0  0  0  0  0  0  0
    0.7498   -1.1441    0.0000 C   0  0  0  0  0  0  0  0  0  0  0  0
    0.7498   -0.3191    0.0000 C   0  0  0  0  0  0  0  0  0  0  0  0
   -0.0348   -0.0642    0.0000 N   0  0  0  0  0  0  0  0  0  0  0  0
   -0.2897    0.7205    0.0000 C   0  0  0  0  0  0  0  0  0  0  0  0
    0.2623    1.3335    0.0000 O   0  0  0  0  0  0  0  0  0  0  0  0
   -1.0967    0.8920    0.0000 C   0  0  0  0  0  0  0  0  0  0  0  0
   -1.6487    0.2789    0.0000 C   0  0  0  0  0  0  0  0  0  0  0  0
   -2.4557    0.4504    0.0000 C   0  0  0  0  0  0  0  0  0  0  0  0
   -2.7106    1.2350    0.0000 C   0  0  0  0  0  0  0  0  0  0  0  0
   -2.1586    1.8481    0.0000 C   0  0  0  0  0  0  0  0  0  0  0  0
   -1.3516    1.6766    0.0000 C   0  0  0  0  0  0  0  0  0  0  0  0
   -3.5176    1.4066    0.0000 Cl  0  0  0  0  0  0  0  0  0  0  0  0
    1.4643    0.0934    0.0000 C   0  0  0  0  0  0  0  0  0  0  0  0
    2.1788   -0.3191    0.0000 C   0  0  0  0  0  0  0  0  0  0  0  0
    2.1788   -1.1441    0.0000 C   0  0  0  0  0  0  0  0  0  0  0  0
    1.4643   -1.5566    0.0000 C   0  0  0  0  0  0  0  0  0  0  0  0
    2.8933   -1.5566    0.0000 O   0  0  0  0  0  0  0  0  0  0  0  0
    3.6077   -1.1441    0.0000 C   0  0  0  0  0  0  0  0  0  0  0  0
   -0.2897   -2.1837    0.0000 C   0  0  0  0  0  0  0  0  0  0  0  0
    0.2623   -2.7968    0.0000 C   0  0  0  0  0  0  0  0  0  0  0  0
    1.0693   -2.6252    0.0000 O   0  0  0  0  0  0  0  0  0  0  0  0
    0.0074   -3.5814    0.0000 O   0  0  0  0  0  0  0  0  0  0  0  0
  1  2  1  0
  2  3  2  0
  3  4  1  0
  4  5  2  0
  5  6  1  0
  2  6  1  0
  6  7  1  0
  7  8  2  0
  7  9  1  0
  9 10  2  0
 10 11  1  0
 11 12  2  0
 12 13  1  0
 13 14  2  0
  9 14  1  0
 12 15  1  0
  5 16  1  0
 16 17  2  0
 17 18  1  0
 18 19  2  0
  4 19  1  0
 18 20  1  0
 20 21  1  0
  3 22  1  0
 22 23  1  0
 23 24  2  0
 23 25  1  0
M  END
>  <name>  (268) 
indomethacin

>  <logBB>  (268) 
-1.26

>  <logBB_class>  (268) 
0

>  <HAC>  (268) 
25

$$$$
MolID_6
     RDKit          2D

 26 28  0  0  0  0  0  0  0  0999 V2000
    0.7241   -2.8801    0.0000 O   0  0  0  0  0  0  0  0  0  0  0  0
    0.7241   -2.0551    0.0000 C   0  0  0  0  0  0  0  0  0  0  0  0
    1.4385   -1.6426    0.0000 N   0  0  0  0  0  0  0  0  0  0  0  0
    2.1530   -2.0551    0.0000 C   0  0  0  0  0  0  0  0  0  0  0  0
    2.8675   -1.6426    0.0000 C   0  0  0  0  0  0  0  0  0  0  0  0
    3.5820   -2.0551    0.0000 C   0  0  0  0  0  0  0  0  0  0  0  0
    4.2964   -1.6426    0.0000 O   0  0  0  0  0  0  0  0  0  0  0  0
    5.0109   -2.0551    0.0000 C   0  0  0  0  0  0  0  0  0  0  0  0
    5.7254   -1.6426    0.0000 C   0  0  0  0  0  0  0  0  0  0  0  0
    6.4398   -2.0551    0.0000 C   0  0  0  0  0  0  0  0  0  0  0  0
    7.1543   -1.6426    0.0000 C   0  0  0  0  0  0  0  0  0  0  0  0
    7.8688   -2.0551    0.0000 N   0  0  0  0  0  0  0  0  0  0  0  0
    8.5832   -1.6426    0.0000 C   0  0  0  0  0  0  0  0  0  0  0  0
    9.2977   -2.0551    0.0000 C   0  0  0  0  0  0  0  0  0  0  0  0
    9.2977   -2.8801    0.0000 C   0  0  0  0  0  0  0  0  0  0  0  0
    8.5832   -3.2926    0.0000 C   0  0  0  0  0  0  0  0  0  0  0  0
    7.8688   -2.8801    0.0000 C   0  0  0  0  0  0  0  0  0  0  0  0
    6.4398   -2.8801    0.0000 C   0  0  0  0  0  0  0  0  0  0  0  0
    5.7254   -3.2926    0.0000 C   0  0  0  0  0  0  0  0  0  0  0  0
    5.0109   -2.8801    0.0000 C   0  0  0  0  0  0  0  0  0  0  0  0
    0.0096   -1.6426    0.0000 C   0  0  0  0  0  0  0  0  0  0  0  0
   -0.7049   -2.0551    0.0000 C   0  0  0  0  0  0  0  0  0  0  0  0
   -1.4193   -1.6426    0.0000 C   0  0  0  0  0  0  0  0  0  0  0  0
   -1.4193   -0.8176    0.0000 C   0  0  0  0  0  0  0  0  0  0  0  0
   -0.7049   -0.4051    0.0000 C   0  0  0  0  0  0  0  0  0  0  0  0
    0.0096   -0.8176    0.0000 C   0  0  0  0  0  0  0  0  0  0  0  0
  1  2  2  0
  2  3  1  0
  3  4  1  0
  4  5  1  0
  5  6  1  0
  6  7  1  0
  7  8  1  0
  8  9  2  0
  9 10  1  0
 10 11  1  0
 11 12  1  0
 12 13  1  0
 13 14  1  0
 14 15  1  0
 15 16  1  0
 16 17  1  0
 12 17  1  0
 10 18  2  0
 18 19  1  0
 19 20  2  0
  8 20  1  0
  2 21  1  0
 21 22  2  0
 22 23  1  0
 23 24  2  0
 24 25  1  0
 25 26  2  0
 21 26  1  0
M  END
>  <name>  (269) 
17

>  <logBB>  (269) 
-0.24

>  <logBB_class>  (269) 
0

>  <HAC>  (269) 
26

$$$$
MolID_86
     RDKit          2D

 26 29  0  0  0  0  0  0  0  0999 V2000
    7.0939    4.5960    0.0000 C   0  0  0  0  0  0  0  0  0  0  0  0
    6.3065    4.3499    0.0000 C   0  0  0  0  0  0  0  0  0  0  0  0
    6.0603    5.1373    0.0000 C   0  0  0  0  0  0  0  0  0  0  0  0
    5.5190    4.1037    0.0000 O   0  0  0  0  0  0  0  0  0  0  0  0
    5.3385    3.2987    0.0000 C   0  0  0  0  0  0  0  0  0  0  0  0
    4.5511    3.0526    0.0000 C   0  0  0  0  0  0  0  0  0  0  0  0
    4.2874    2.2708    0.0000 C   0  0  0  0  0  0  0  0  0  0  0  0
    4.7945    1.6201    0.0000 C   0  0  0  0  0  0  0  0  0  0  0  0
    5.6170    1.6849    0.0000 C   0  0  0  0  0  0  0  0  0  0  0  0
    5.9327    0.9227    0.0000 C   0  0  0  0  0  0  0  0  0  0  0  0
    5.3054    0.3869    0.0000 C   0  0  0  0  0  0  0  0  0  0  0  0
    4.6020    0.8179    0.0000 N   0  0  0  0  0  0  0  0  0  0  0  0
    3.8547    0.4683    0.0000 C   0  0  0  0  0  0  0  0  0  0  0  0
    3.1155    0.8345    0.0000 C   0  0  0  0  0  0  0  0  0  0  0  0
    2.9409    1.6408    0.0000 C   0  0  0  0  0  0  0  0  0  0  0  0
    2.1553    1.8928    0.0000 C   0  0  0  0  0  0  0  0  0  0  0  0
    1.5443    1.3385    0.0000 C   0  0  0  0  0  0  0  0  0  0  0  0
    1.7189    0.5321    0.0000 C   0  0  0  0  0  0  0  0  0  0  0  0
    1.1079   -0.0222    0.0000 Br  0  0  0  0  0  0  0  0  0  0  0  0
    2.5044    0.2802    0.0000 C   0  0  0  0  0  0  0  0  0  0  0  0
    3.8455   -0.3567    0.0000 O   0  0  0  0  0  0  0  0  0  0  0  0
    3.4624    2.2801    0.0000 N   0  0  0  0  0  0  0  0  0  0  0  0
    3.2163    3.0675    0.0000 C   0  0  0  0  0  0  0  0  0  0  0  0
    3.8891    3.5449    0.0000 N   0  0  0  0  0  0  0  0  0  0  0  0
    5.9454    2.7399    0.0000 O   0  0  0  0  0  0  0  0  0  0  0  0
    6.5526    3.5624    0.0000 C   0  0  0  0  0  0  0  0  0  0  0  0
  1  2  1  0
  2  3  1  0
  2  4  1  0
  4  5  1  0
  5  6  1  0
  6  7  2  0
  7  8  1  0
  8  9  1  0
  9 10  1  0
 10 11  1  0
 11 12  1  0
  8 12  1  0
 12 13  1  0
 13 14  1  0
 14 15  2  0
 15 16  1  0
 16 17  2  0
 17 18  1  0
 18 19  1  0
 18 20  2  0
 14 20  1  0
 13 21  2  0
  7 22  1  0
 15 22  1  0
 22 23  1  0
 23 24  2  0
  6 24  1  0
  5 25  2  0
  2 26  1  0
M  END
>  <name>  (270) 
bretazenil

>  <logBB>  (270) 
-0.09

>  <logBB_class>  (270) 
0

>  <HAC>  (270) 
26

$$$$
MolID_88
     RDKit          2D

 26 28  0  0  0  0  0  0  0  0999 V2000
   -0.6761   -1.2554    0.0000 C   0  0  0  0  0  0  0  0  0  0  0  0
    0.0383   -1.6679    0.0000 C   0  0  0  0  0  0  0  0  0  0  0  0
    0.0383   -2.4929    0.0000 N   0  0  0  0  0  0  0  0  0  0  0  0
   -0.6761   -2.9054    0.0000 C   0  0  0  0  0  0  0  0  0  0  0  0
   -1.3906   -2.4929    0.0000 C   0  0  0  0  0  0  0  0  0  0  0  0
   -1.3906   -1.6679    0.0000 C   0  0  0  0  0  0  0  0  0  0  0  0
   -2.2151   -1.6391    0.0000 C   0  0  0  0  0  0  0  0  0  0  0  0
   -2.6523   -2.3387    0.0000 C   0  0  0  0  0  0  0  0  0  0  0  0
   -3.4768   -2.3100    0.0000 C   0  0  0  0  0  0  0  0  0  0  0  0
   -3.8641   -1.5815    0.0000 C   0  0  0  0  0  0  0  0  0  0  0  0
   -3.4269   -0.8819    0.0000 C   0  0  0  0  0  0  0  0  0  0  0  0
   -2.6024   -0.9107    0.0000 C   0  0  0  0  0  0  0  0  0  0  0  0
   -4.6886   -1.5527    0.0000 Br  0  0  0  0  0  0  0  0  0  0  0  0
   -1.8278   -0.9683    0.0000 O   0  0  0  0  0  0  0  0  0  0  0  0
    0.7528   -2.9054    0.0000 C   0  0  0  0  0  0  0  0  0  0  0  0
    1.4673   -2.4929    0.0000 C   0  0  0  0  0  0  0  0  0  0  0  0
    2.1818   -2.9054    0.0000 C   0  0  0  0  0  0  0  0  0  0  0  0
    2.8962   -2.4929    0.0000 C   0  0  0  0  0  0  0  0  0  0  0  0
    2.8962   -1.6679    0.0000 O   0  0  0  0  0  0  0  0  0  0  0  0
    3.6107   -2.9054    0.0000 C   0  0  0  0  0  0  0  0  0  0  0  0
    4.3252   -2.4929    0.0000 C   0  0  0  0  0  0  0  0  0  0  0  0
    5.0396   -2.9054    0.0000 C   0  0  0  0  0  0  0  0  0  0  0  0
    5.0396   -3.7304    0.0000 C   0  0  0  0  0  0  0  0  0  0  0  0
    4.3252   -4.1429    0.0000 C   0  0  0  0  0  0  0  0  0  0  0  0
    3.6107   -3.7304    0.0000 C   0  0  0  0  0  0  0  0  0  0  0  0
    5.7541   -4.1429    0.0000 F   0  0  0  0  0  0  0  0  0  0  0  0
  1  2  1  0
  2  3  1  0
  3  4  1  0
  4  5  1  0
  5  6  1  0
  1  6  1  0
  6  7  1  0
  7  8  2  0
  8  9  1  0
  9 10  2  0
 10 11  1  0
 11 12  2  0
  7 12  1  0
 10 13  1  0
  6 14  1  0
  3 15  1  0
 15 16  1  0
 16 17  1  0
 17 18  1  0
 18 19  2  0
 18 20  1  0
 20 21  2  0
 21 22  1  0
 22 23  2  0
 23 24  1  0
 24 25  2  0
 20 25  1  0
 23 26  1  0
M  END
>  <name>  (271) 
bromperidol

>  <logBB>  (271) 
1.38

>  <logBB_class>  (271) 
1

>  <HAC>  (271) 
26

$$$$
MolID_111
     RDKit          2D

 26 29  0  0  0  0  0  0  0  0999 V2000
   -1.6753    2.3609    0.0000 C   0  0  0  0  0  0  0  0  0  0  0  0
   -1.3555    1.6004    0.0000 C   0  0  0  0  0  0  0  0  0  0  0  0
   -2.1160    1.2806    0.0000 C   0  0  0  0  0  0  0  0  0  0  0  0
   -1.0357    0.8399    0.0000 C   0  0  0  0  0  0  0  0  0  0  0  0
   -0.2324    0.6516    0.0000 N   0  0  0  0  0  0  0  0  0  0  0  0
   -0.1633   -0.1705    0.0000 C   0  0  0  0  0  0  0  0  0  0  0  0
   -0.9238   -0.4903    0.0000 N   0  0  0  0  0  0  0  0  0  0  0  0
   -1.4629    0.1341    0.0000 O   0  0  0  0  0  0  0  0  0  0  0  0
    0.5425   -0.5978    0.0000 C   0  0  0  0  0  0  0  0  0  0  0  0
    1.3029   -0.2780    0.0000 C   0  0  0  0  0  0  0  0  0  0  0  0
    1.4550    0.5329    0.0000 C   0  0  0  0  0  0  0  0  0  0  0  0
    2.1838    0.9196    0.0000 N   0  0  0  0  0  0  0  0  0  0  0  0
    2.9405    0.5909    0.0000 C   0  0  0  0  0  0  0  0  0  0  0  0
    3.5649    1.1301    0.0000 O   0  0  0  0  0  0  0  0  0  0  0  0
    3.1553   -0.2056    0.0000 C   0  0  0  0  0  0  0  0  0  0  0  0
    2.6665   -0.8702    0.0000 C   0  0  0  0  0  0  0  0  0  0  0  0
    1.8421   -0.9024    0.0000 N   0  0  0  0  0  0  0  0  0  0  0  0
    1.4148   -1.6081    0.0000 C   0  0  0  0  0  0  0  0  0  0  0  0
    0.6116   -1.4199    0.0000 N   0  0  0  0  0  0  0  0  0  0  0  0
    2.9976   -1.6258    0.0000 C   0  0  0  0  0  0  0  0  0  0  0  0
    3.8176   -1.7168    0.0000 C   0  0  0  0  0  0  0  0  0  0  0  0
    4.3064   -1.0522    0.0000 C   0  0  0  0  0  0  0  0  0  0  0  0
    3.9753   -0.2966    0.0000 C   0  0  0  0  0  0  0  0  0  0  0  0
    4.4641    0.3680    0.0000 Cl  0  0  0  0  0  0  0  0  0  0  0  0
    2.1516    1.7440    0.0000 C   0  0  0  0  0  0  0  0  0  0  0  0
   -0.5950    1.9202    0.0000 O   0  0  0  0  0  0  0  0  0  0  0  0
  1  2  1  0
  2  3  1  0
  2  4  1  0
  4  5  2  0
  5  6  1  0
  6  7  2  0
  7  8  1  0
  4  8  1  0
  6  9  1  0
  9 10  2  0
 10 11  1  0
 11 12  1  0
 12 13  1  0
 13 14  2  0
 13 15  1  0
 15 16  2  0
 16 17  1  0
 10 17  1  0
 17 18  1  0
 18 19  2  0
  9 19  1  0
 16 20  1  0
 20 21  2  0
 21 22  1  0
 22 23  2  0
 15 23  1  0
 23 24  1  0
 12 25  1  0
  2 26  1  0
M  END
>  <name>  (272) 
CHEBI338585

>  <logBB>  (272) 
-1.34

>  <logBB_class>  (272) 
0

>  <HAC>  (272) 
26

$$$$
MolID_117
     RDKit          2D

 26 28  0  0  0  0  0  0  0  0999 V2000
   -1.3145   -4.7026    0.0000 C   0  0  0  0  0  0  0  0  0  0  0  0
   -0.9020   -3.9881    0.0000 C   0  0  0  0  0  0  0  0  0  0  0  0
   -0.0950   -4.1596    0.0000 C   0  0  0  0  0  0  0  0  0  0  0  0
    0.5180   -3.6076    0.0000 O   0  0  0  0  0  0  0  0  0  0  0  0
   -0.0088   -4.9801    0.0000 N   0  0  0  0  0  0  0  0  0  0  0  0
   -0.7625   -5.3157    0.0000 C   0  0  0  0  0  0  0  0  0  0  0  0
    0.7057   -5.3926    0.0000 C   0  0  0  0  0  0  0  0  0  0  0  0
    1.4201   -4.9801    0.0000 C   0  0  0  0  0  0  0  0  0  0  0  0
    2.1346   -5.3926    0.0000 C   0  0  0  0  0  0  0  0  0  0  0  0
    2.8491   -4.9801    0.0000 C   0  0  0  0  0  0  0  0  0  0  0  0
    3.5635   -5.3926    0.0000 N   0  0  0  0  0  0  0  0  0  0  0  0
    4.2780   -4.9801    0.0000 C   0  0  0  0  0  0  0  0  0  0  0  0
    4.9925   -5.3926    0.0000 C   0  0  0  0  0  0  0  0  0  0  0  0
    4.9925   -6.2176    0.0000 N   0  0  0  0  0  0  0  0  0  0  0  0
    4.2780   -6.6301    0.0000 C   0  0  0  0  0  0  0  0  0  0  0  0
    3.5635   -6.2176    0.0000 C   0  0  0  0  0  0  0  0  0  0  0  0
    5.7070   -6.6301    0.0000 C   0  0  0  0  0  0  0  0  0  0  0  0
    6.4214   -6.2176    0.0000 N   0  0  0  0  0  0  0  0  0  0  0  0
    7.1359   -6.6301    0.0000 C   0  0  0  0  0  0  0  0  0  0  0  0
    7.1359   -7.4551    0.0000 C   0  0  0  0  0  0  0  0  0  0  0  0
    6.4214   -7.8676    0.0000 C   0  0  0  0  0  0  0  0  0  0  0  0
    5.7070   -7.4551    0.0000 C   0  0  0  0  0  0  0  0  0  0  0  0
    6.4214   -8.6926    0.0000 C   0  0  0  0  0  0  0  0  0  0  0  0
    6.4214   -9.5176    0.0000 F   0  0  0  0  0  0  0  0  0  0  0  0
    5.5964   -8.6926    0.0000 F   0  0  0  0  0  0  0  0  0  0  0  0
    7.2464   -8.6926    0.0000 F   0  0  0  0  0  0  0  0  0  0  0  0
  1  2  1  0
  2  3  1  0
  3  4  2  0
  3  5  1  0
  5  6  1  0
  1  6  1  0
  5  7  1  0
  7  8  1  0
  8  9  1  0
  9 10  1  0
 10 11  1  0
 11 12  1  0
 12 13  1  0
 13 14  1  0
 14 15  1  0
 15 16  1  0
 11 16  1  0
 14 17  1  0
 17 18  2  0
 18 19  1  0
 19 20  2  0
 20 21  1  0
 21 22  2  0
 17 22  1  0
 21 23  1  0
 23 24  1  0
 23 25  1  0
 23 26  1  0
M  END
>  <name>  (273) 
CHEBI568728

>  <logBB>  (273) 
0.16

>  <logBB_class>  (273) 
1

>  <HAC>  (273) 
26

$$$$
MolID_174
     RDKit          2D

 26 28  0  0  0  0  0  0  0  0999 V2000
   -0.6761   -1.2554    0.0000 C   0  0  0  0  0  0  0  0  0  0  0  0
    0.0383   -1.6679    0.0000 C   0  0  0  0  0  0  0  0  0  0  0  0
    0.0383   -2.4929    0.0000 N   0  0  0  0  0  0  0  0  0  0  0  0
   -0.6761   -2.9054    0.0000 C   0  0  0  0  0  0  0  0  0  0  0  0
   -1.3906   -2.4929    0.0000 C   0  0  0  0  0  0  0  0  0  0  0  0
   -1.3906   -1.6679    0.0000 C   0  0  0  0  0  0  0  0  0  0  0  0
   -2.2151   -1.6391    0.0000 C   0  0  0  0  0  0  0  0  0  0  0  0
   -2.6523   -2.3387    0.0000 C   0  0  0  0  0  0  0  0  0  0  0  0
   -3.4768   -2.3100    0.0000 C   0  0  0  0  0  0  0  0  0  0  0  0
   -3.8641   -1.5815    0.0000 C   0  0  0  0  0  0  0  0  0  0  0  0
   -3.4269   -0.8819    0.0000 C   0  0  0  0  0  0  0  0  0  0  0  0
   -2.6024   -0.9107    0.0000 C   0  0  0  0  0  0  0  0  0  0  0  0
   -4.6886   -1.5527    0.0000 Cl  0  0  0  0  0  0  0  0  0  0  0  0
   -1.8278   -0.9683    0.0000 O   0  0  0  0  0  0  0  0  0  0  0  0
    0.7528   -2.9054    0.0000 C   0  0  0  0  0  0  0  0  0  0  0  0
    1.4673   -2.4929    0.0000 C   0  0  0  0  0  0  0  0  0  0  0  0
    2.1818   -2.9054    0.0000 C   0  0  0  0  0  0  0  0  0  0  0  0
    2.8962   -2.4929    0.0000 C   0  0  0  0  0  0  0  0  0  0  0  0
    2.8962   -1.6679    0.0000 O   0  0  0  0  0  0  0  0  0  0  0  0
    3.6107   -2.9054    0.0000 C   0  0  0  0  0  0  0  0  0  0  0  0
    4.3252   -2.4929    0.0000 C   0  0  0  0  0  0  0  0  0  0  0  0
    5.0396   -2.9054    0.0000 C   0  0  0  0  0  0  0  0  0  0  0  0
    5.0396   -3.7304    0.0000 C   0  0  0  0  0  0  0  0  0  0  0  0
    4.3252   -4.1429    0.0000 C   0  0  0  0  0  0  0  0  0  0  0  0
    3.6107   -3.7304    0.0000 C   0  0  0  0  0  0  0  0  0  0  0  0
    5.7541   -4.1429    0.0000 F   0  0  0  0  0  0  0  0  0  0  0  0
  1  2  1  0
  2  3  1  0
  3  4  1  0
  4  5  1  0
  5  6  1  0
  1  6  1  0
  6  7  1  0
  7  8  2  0
  8  9  1  0
  9 10  2  0
 10 11  1  0
 11 12  2  0
  7 12  1  0
 10 13  1  0
  6 14  1  0
  3 15  1  0
 15 16  1  0
 16 17  1  0
 17 18  1  0
 18 19  2  0
 18 20  1  0
 20 21  2  0
 21 22  1  0
 22 23  2  0
 23 24  1  0
 24 25  2  0
 20 25  1  0
 23 26  1  0
M  END
>  <name>  (274) 
haloperidol

>  <logBB>  (274) 
1.33

>  <logBB_class>  (274) 
1

>  <HAC>  (274) 
26

$$$$
MolID_178
     RDKit          2D

 26 28  0  0  0  0  0  0  0  0999 V2000
    5.7103   -3.3823    0.0000 O   0  0  0  0  0  0  0  0  0  0  0  0
    6.4248   -2.9698    0.0000 C   0  0  0  0  0  0  0  0  0  0  0  0
    7.1392   -3.3823    0.0000 C   0  0  0  0  0  0  0  0  0  0  0  0
    7.8537   -2.9698    0.0000 O   0  0  0  0  0  0  0  0  0  0  0  0
    8.5682   -3.3823    0.0000 C   0  0  0  0  0  0  0  0  0  0  0  0
    9.2826   -2.9698    0.0000 C   0  0  0  0  0  0  0  0  0  0  0  0
    9.9971   -3.3823    0.0000 N   0  0  0  0  0  0  0  0  0  0  0  0
   10.7116   -2.9698    0.0000 C   0  0  0  0  0  0  0  0  0  0  0  0
   11.4260   -3.3823    0.0000 C   0  0  0  0  0  0  0  0  0  0  0  0
   11.4260   -4.2073    0.0000 N   0  0  0  0  0  0  0  0  0  0  0  0
   12.1405   -4.6198    0.0000 C   0  0  0  0  0  0  0  0  0  0  0  0
   12.8550   -4.2073    0.0000 C   0  0  0  0  0  0  0  0  0  0  0  0
   12.8550   -3.3823    0.0000 C   0  0  0  0  0  0  0  0  0  0  0  0
   13.5695   -2.9698    0.0000 C   0  0  0  0  0  0  0  0  0  0  0  0
   14.2839   -3.3823    0.0000 C   0  0  0  0  0  0  0  0  0  0  0  0
   14.2839   -4.2073    0.0000 C   0  0  0  0  0  0  0  0  0  0  0  0
   13.5695   -4.6198    0.0000 C   0  0  0  0  0  0  0  0  0  0  0  0
   14.9984   -2.9698    0.0000 Cl  0  0  0  0  0  0  0  0  0  0  0  0
   12.1405   -5.4448    0.0000 C   0  0  0  0  0  0  0  0  0  0  0  0
   12.8550   -5.8573    0.0000 C   0  0  0  0  0  0  0  0  0  0  0  0
   12.8550   -6.6823    0.0000 C   0  0  0  0  0  0  0  0  0  0  0  0
   12.1405   -7.0948    0.0000 C   0  0  0  0  0  0  0  0  0  0  0  0
   11.4260   -6.6823    0.0000 C   0  0  0  0  0  0  0  0  0  0  0  0
   11.4260   -5.8573    0.0000 C   0  0  0  0  0  0  0  0  0  0  0  0
   10.7116   -4.6198    0.0000 C   0  0  0  0  0  0  0  0  0  0  0  0
    9.9971   -4.2073    0.0000 C   0  0  0  0  0  0  0  0  0  0  0  0
  1  2  1  0
  2  3  1  0
  3  4  1  0
  4  5  1  0
  5  6  1  0
  6  7  1  0
  7  8  1  0
  8  9  1  0
  9 10  1  0
 10 11  1  0
 11 12  1  0
 12 13  2  0
 13 14  1  0
 14 15  2  0
 15 16  1  0
 16 17  2  0
 12 17  1  0
 15 18  1  0
 11 19  1  0
 19 20  2  0
 20 21  1  0
 21 22  2  0
 22 23  1  0
 23 24  2  0
 19 24  1  0
 10 25  1  0
 25 26  1  0
  7 26  1  0
M  END
>  <name>  (275) 
Hydroxyzine

>  <logBB>  (275) 
0.39

>  <logBB_class>  (275) 
1

>  <HAC>  (275) 
26

$$$$
MolID_197
     RDKit          2D

 26 28  0  0  0  0  0  0  0  0999 V2000
   -2.2400    1.2246    0.0000 C   0  0  0  0  0  0  0  0  0  0  0  0
   -2.2400    2.0496    0.0000 C   0  0  0  0  0  0  0  0  0  0  0  0
   -1.5255    2.4621    0.0000 C   0  0  0  0  0  0  0  0  0  0  0  0
   -0.8111    2.0496    0.0000 N   0  0  0  0  0  0  0  0  0  0  0  0
   -0.8111    1.2246    0.0000 C   0  0  0  0  0  0  0  0  0  0  0  0
   -1.5255    0.8121    0.0000 C   0  0  0  0  0  0  0  0  0  0  0  0
   -0.0966    0.8121    0.0000 C   0  0  0  0  0  0  0  0  0  0  0  0
   -0.0966   -0.0129    0.0000 C   0  0  0  0  0  0  0  0  0  0  0  0
   -0.8111   -0.4254    0.0000 C   0  0  0  0  0  0  0  0  0  0  0  0
   -0.8111   -1.2504    0.0000 C   0  0  0  0  0  0  0  0  0  0  0  0
   -0.0966   -1.6629    0.0000 N   0  0  0  0  0  0  0  0  0  0  0  0
    0.6179   -1.2504    0.0000 C   0  0  0  0  0  0  0  0  0  0  0  0
    0.6179   -0.4254    0.0000 C   0  0  0  0  0  0  0  0  0  0  0  0
    1.3323   -0.0129    0.0000 C   0  0  0  0  0  0  0  0  0  0  0  0
    2.0468   -0.4254    0.0000 C   0  0  0  0  0  0  0  0  0  0  0  0
    2.0468   -1.2504    0.0000 C   0  0  0  0  0  0  0  0  0  0  0  0
    1.3323   -1.6629    0.0000 C   0  0  0  0  0  0  0  0  0  0  0  0
    1.3323   -2.4879    0.0000 C   0  0  0  0  0  0  0  0  0  0  0  0
    1.3323   -3.3129    0.0000 F   0  0  0  0  0  0  0  0  0  0  0  0
    0.5073   -2.4879    0.0000 F   0  0  0  0  0  0  0  0  0  0  0  0
    2.1573   -2.4879    0.0000 F   0  0  0  0  0  0  0  0  0  0  0  0
   -1.5255   -1.6629    0.0000 C   0  0  0  0  0  0  0  0  0  0  0  0
   -2.2400   -2.0754    0.0000 F   0  0  0  0  0  0  0  0  0  0  0  0
   -1.1130   -2.3774    0.0000 F   0  0  0  0  0  0  0  0  0  0  0  0
   -1.9380   -0.9484    0.0000 F   0  0  0  0  0  0  0  0  0  0  0  0
    0.6179    1.2246    0.0000 O   0  0  0  0  0  0  0  0  0  0  0  0
  1  2  1  0
  2  3  1  0
  3  4  1  0
  4  5  1  0
  5  6  1  0
  1  6  1  0
  5  7  1  0
  7  8  1  0
  8  9  2  0
  9 10  1  0
 10 11  2  0
 11 12  1  0
 12 13  2  0
  8 13  1  0
 13 14  1  0
 14 15  2  0
 15 16  1  0
 16 17  2  0
 12 17  1  0
 17 18  1  0
 18 19  1  0
 18 20  1  0
 18 21  1  0
 10 22  1  0
 22 23  1  0
 22 24  1  0
 22 25  1  0
  7 26  1  0
M  END
>  <name>  (276) 
mefloquine

>  <logBB>  (276) 
0.63

>  <logBB_class>  (276) 
1

>  <HAC>  (276) 
26

$$$$
MolID_198
     RDKit          2D

 26 29  0  0  0  0  0  0  0  0999 V2000
    4.4207   -2.4581    0.0000 C   0  0  0  0  0  0  0  0  0  0  0  0
    3.7062   -2.8706    0.0000 N   0  0  0  0  0  0  0  0  0  0  0  0
    3.7062   -3.6956    0.0000 C   0  0  0  0  0  0  0  0  0  0  0  0
    2.9917   -4.1081    0.0000 C   0  0  0  0  0  0  0  0  0  0  0  0
    2.2772   -3.6956    0.0000 C   0  0  0  0  0  0  0  0  0  0  0  0
    2.2772   -2.8706    0.0000 C   0  0  0  0  0  0  0  0  0  0  0  0
    2.9917   -2.4581    0.0000 C   0  0  0  0  0  0  0  0  0  0  0  0
    2.9917   -1.6331    0.0000 C   0  0  0  0  0  0  0  0  0  0  0  0
    2.2772   -1.2206    0.0000 C   0  0  0  0  0  0  0  0  0  0  0  0
    2.2772   -0.3956    0.0000 N   0  0  0  0  0  0  0  0  0  0  0  0
    2.9917    0.0169    0.0000 C   0  0  0  0  0  0  0  0  0  0  0  0
    3.7062   -0.3956    0.0000 C   0  0  0  0  0  0  0  0  0  0  0  0
    4.4207    0.0169    0.0000 C   0  0  0  0  0  0  0  0  0  0  0  0
    4.4207    0.8419    0.0000 C   0  0  0  0  0  0  0  0  0  0  0  0
    3.7062    1.2544    0.0000 C   0  0  0  0  0  0  0  0  0  0  0  0
    2.9917    0.8419    0.0000 C   0  0  0  0  0  0  0  0  0  0  0  0
    2.2772    1.2544    0.0000 S   0  0  0  0  0  0  0  0  0  0  0  0
    1.5628    0.8419    0.0000 C   0  0  0  0  0  0  0  0  0  0  0  0
    1.5628    0.0169    0.0000 C   0  0  0  0  0  0  0  0  0  0  0  0
    0.8483   -0.3956    0.0000 C   0  0  0  0  0  0  0  0  0  0  0  0
    0.1338    0.0169    0.0000 C   0  0  0  0  0  0  0  0  0  0  0  0
    0.1338    0.8419    0.0000 C   0  0  0  0  0  0  0  0  0  0  0  0
    0.8483    1.2544    0.0000 C   0  0  0  0  0  0  0  0  0  0  0  0
   -0.5806   -0.3956    0.0000 S   0  0  0  0  0  0  0  0  0  0  0  0
   -0.5806   -1.2206    0.0000 O   0  0  0  0  0  0  0  0  0  0  0  0
   -1.2951    0.0169    0.0000 C   0  0  0  0  0  0  0  0  0  0  0  0
  1  2  1  0
  2  3  1  0
  3  4  1  0
  4  5  1  0
  5  6  1  0
  6  7  1  0
  2  7  1  0
  7  8  1  0
  8  9  1  0
  9 10  1  0
 10 11  1  0
 11 12  2  0
 12 13  1  0
 13 14  2  0
 14 15  1  0
 15 16  2  0
 11 16  1  0
 16 17  1  0
 17 18  1  0
 18 19  2  0
 10 19  1  0
 19 20  1  0
 20 21  2  0
 21 22  1  0
 22 23  2  0
 18 23  1  0
 21 24  1  0
 24 25  2  0
 24 26  1  0
M  END
>  <name>  (277) 
mesoridazine

>  <logBB>  (277) 
-0.28

>  <logBB_class>  (277) 
0

>  <HAC>  (277) 
26

$$$$
MolID_101
     RDKit          2D

 27 29  0  0  0  0  0  0  0  0999 V2000
   -3.6187   -2.8993    0.0000 C   0  0  0  0  0  0  0  0  0  0  0  0
   -4.3332   -2.4868    0.0000 C   0  0  0  0  0  0  0  0  0  0  0  0
   -4.3332   -1.6618    0.0000 N   0  0  0  0  0  0  0  0  0  0  0  0
   -3.6187   -1.2493    0.0000 C   0  0  0  0  0  0  0  0  0  0  0  0
   -2.9042   -1.6618    0.0000 C   0  0  0  0  0  0  0  0  0  0  0  0
   -2.9042   -2.4868    0.0000 N   0  0  0  0  0  0  0  0  0  0  0  0
   -2.1898   -2.8993    0.0000 C   0  0  0  0  0  0  0  0  0  0  0  0
   -1.4753   -2.4868    0.0000 C   0  0  0  0  0  0  0  0  0  0  0  0
   -0.7608   -2.8993    0.0000 O   0  0  0  0  0  0  0  0  0  0  0  0
   -0.0463   -2.4868    0.0000 C   0  0  0  0  0  0  0  0  0  0  0  0
    0.6681   -2.8993    0.0000 C   0  0  0  0  0  0  0  0  0  0  0  0
    1.3826   -2.4868    0.0000 O   0  0  0  0  0  0  0  0  0  0  0  0
    0.6681   -3.7243    0.0000 O   0  0  0  0  0  0  0  0  0  0  0  0
   -5.0476   -1.2493    0.0000 C   0  0  0  0  0  0  0  0  0  0  0  0
   -5.0476   -0.4243    0.0000 C   0  0  0  0  0  0  0  0  0  0  0  0
   -5.7621   -0.0118    0.0000 C   0  0  0  0  0  0  0  0  0  0  0  0
   -5.7621    0.8132    0.0000 C   0  0  0  0  0  0  0  0  0  0  0  0
   -5.0476    1.2257    0.0000 C   0  0  0  0  0  0  0  0  0  0  0  0
   -4.3332    0.8132    0.0000 C   0  0  0  0  0  0  0  0  0  0  0  0
   -4.3332   -0.0118    0.0000 C   0  0  0  0  0  0  0  0  0  0  0  0
   -5.7621   -1.6618    0.0000 C   0  0  0  0  0  0  0  0  0  0  0  0
   -5.7621   -2.4868    0.0000 C   0  0  0  0  0  0  0  0  0  0  0  0
   -6.4766   -2.8993    0.0000 C   0  0  0  0  0  0  0  0  0  0  0  0
   -7.1911   -2.4868    0.0000 C   0  0  0  0  0  0  0  0  0  0  0  0
   -7.1911   -1.6618    0.0000 C   0  0  0  0  0  0  0  0  0  0  0  0
   -6.4766   -1.2493    0.0000 C   0  0  0  0  0  0  0  0  0  0  0  0
   -7.9055   -2.8993    0.0000 Cl  0  0  0  0  0  0  0  0  0  0  0  0
  1  2  1  0
  2  3  1  0
  3  4  1  0
  4  5  1  0
  5  6  1  0
  1  6  1  0
  6  7  1  0
  7  8  1  0
  8  9  1  0
  9 10  1  0
 10 11  1  0
 11 12  1  0
 11 13  2  0
  3 14  1  0
 14 15  1  0
 15 16  2  0
 16 17  1  0
 17 18  2  0
 18 19  1  0
 19 20  2  0
 15 20  1  0
 14 21  1  0
 21 22  2  0
 22 23  1  0
 23 24  2  0
 24 25  1  0
 25 26  2  0
 21 26  1  0
 24 27  1  0
M  END
>  <name>  (278) 
cetirizine

>  <logBB>  (278) 
-2.15

>  <logBB_class>  (278) 
0

>  <HAC>  (278) 
27

$$$$
MolID_110
     RDKit          2D

 27 30  0  0  0  0  0  0  0  0999 V2000
   -0.4798    1.8820    0.0000 C   0  0  0  0  0  0  0  0  0  0  0  0
   -1.2403    1.5622    0.0000 C   0  0  0  0  0  0  0  0  0  0  0  0
   -1.5601    2.3227    0.0000 C   0  0  0  0  0  0  0  0  0  0  0  0
   -2.3786    2.4260    0.0000 O   0  0  0  0  0  0  0  0  0  0  0  0
   -0.9205    0.8017    0.0000 C   0  0  0  0  0  0  0  0  0  0  0  0
   -0.1172    0.6135    0.0000 N   0  0  0  0  0  0  0  0  0  0  0  0
   -0.0481   -0.2086    0.0000 C   0  0  0  0  0  0  0  0  0  0  0  0
   -0.8086   -0.5284    0.0000 N   0  0  0  0  0  0  0  0  0  0  0  0
   -1.3477    0.0960    0.0000 O   0  0  0  0  0  0  0  0  0  0  0  0
    0.6577   -0.6359    0.0000 C   0  0  0  0  0  0  0  0  0  0  0  0
    1.4181   -0.3161    0.0000 C   0  0  0  0  0  0  0  0  0  0  0  0
    1.5702    0.4948    0.0000 C   0  0  0  0  0  0  0  0  0  0  0  0
    2.2990    0.8815    0.0000 N   0  0  0  0  0  0  0  0  0  0  0  0
    3.0557    0.5528    0.0000 C   0  0  0  0  0  0  0  0  0  0  0  0
    3.6801    1.0920    0.0000 O   0  0  0  0  0  0  0  0  0  0  0  0
    3.2705   -0.2437    0.0000 C   0  0  0  0  0  0  0  0  0  0  0  0
    2.7817   -0.9083    0.0000 C   0  0  0  0  0  0  0  0  0  0  0  0
    1.9573   -0.9405    0.0000 N   0  0  0  0  0  0  0  0  0  0  0  0
    1.5300   -1.6463    0.0000 C   0  0  0  0  0  0  0  0  0  0  0  0
    0.7268   -1.4580    0.0000 N   0  0  0  0  0  0  0  0  0  0  0  0
    3.1128   -1.6640    0.0000 C   0  0  0  0  0  0  0  0  0  0  0  0
    3.9328   -1.7550    0.0000 C   0  0  0  0  0  0  0  0  0  0  0  0
    4.4216   -1.0904    0.0000 C   0  0  0  0  0  0  0  0  0  0  0  0
    4.0905   -0.3348    0.0000 C   0  0  0  0  0  0  0  0  0  0  0  0
    4.5793    0.3298    0.0000 Cl  0  0  0  0  0  0  0  0  0  0  0  0
    2.2668    1.7058    0.0000 C   0  0  0  0  0  0  0  0  0  0  0  0
   -2.0008    1.2424    0.0000 O   0  0  0  0  0  0  0  0  0  0  0  0
  1  2  1  0
  2  3  1  0
  3  4  1  0
  2  5  1  0
  5  6  2  0
  6  7  1  0
  7  8  2  0
  8  9  1  0
  5  9  1  0
  7 10  1  0
 10 11  2  0
 11 12  1  0
 12 13  1  0
 13 14  1  0
 14 15  2  0
 14 16  1  0
 16 17  2  0
 17 18  1  0
 11 18  1  0
 18 19  1  0
 19 20  2  0
 10 20  1  0
 17 21  1  0
 21 22  2  0
 22 23  1  0
 23 24  2  0
 16 24  1  0
 24 25  1  0
 13 26  1  0
  2 27  1  0
M  END
>  <name>  (279) 
CHEBI338584

>  <logBB>  (279) 
-1.82

>  <logBB_class>  (279) 
0

>  <HAC>  (279) 
27

$$$$
MolID_113
     RDKit          2D

 27 30  0  0  0  0  0  0  0  0999 V2000
   -0.4169   -4.6792    0.0000 C   0  0  0  0  0  0  0  0  0  0  0  0
   -0.4169   -3.8542    0.0000 C   0  0  0  0  0  0  0  0  0  0  0  0
    0.2975   -3.4417    0.0000 C   0  0  0  0  0  0  0  0  0  0  0  0
    1.0120   -3.8542    0.0000 N   0  0  0  0  0  0  0  0  0  0  0  0
    1.0120   -4.6792    0.0000 C   0  0  0  0  0  0  0  0  0  0  0  0
    0.2975   -5.0917    0.0000 C   0  0  0  0  0  0  0  0  0  0  0  0
    1.7265   -3.4417    0.0000 C   0  0  0  0  0  0  0  0  0  0  0  0
    2.4410   -3.8542    0.0000 C   0  0  0  0  0  0  0  0  0  0  0  0
    3.1554   -3.4417    0.0000 C   0  0  0  0  0  0  0  0  0  0  0  0
    3.8699   -3.8542    0.0000 C   0  0  0  0  0  0  0  0  0  0  0  0
    3.8699   -4.6792    0.0000 C   0  0  0  0  0  0  0  0  0  0  0  0
    3.1554   -5.0917    0.0000 C   0  0  0  0  0  0  0  0  0  0  0  0
    2.4410   -4.6792    0.0000 C   0  0  0  0  0  0  0  0  0  0  0  0
    4.5844   -3.4417    0.0000 O   0  0  0  0  0  0  0  0  0  0  0  0
    5.2988   -3.8542    0.0000 C   0  0  0  0  0  0  0  0  0  0  0  0
    6.0133   -3.4417    0.0000 C   0  0  0  0  0  0  0  0  0  0  0  0
    6.7278   -3.8542    0.0000 C   0  0  0  0  0  0  0  0  0  0  0  0
    7.4423   -3.4417    0.0000 N   0  0  0  0  0  0  0  0  0  0  0  0
    8.1567   -3.8542    0.0000 C   0  0  0  0  0  0  0  0  0  0  0  0
    8.9104   -3.5186    0.0000 N   0  0  0  0  0  0  0  0  0  0  0  0
    9.4624   -4.1317    0.0000 C   0  0  0  0  0  0  0  0  0  0  0  0
   10.2874   -4.1317    0.0000 C   0  0  0  0  0  0  0  0  0  0  0  0
   10.6999   -4.8462    0.0000 C   0  0  0  0  0  0  0  0  0  0  0  0
   10.2874   -5.5607    0.0000 C   0  0  0  0  0  0  0  0  0  0  0  0
    9.4624   -5.5607    0.0000 C   0  0  0  0  0  0  0  0  0  0  0  0
    9.0499   -4.8462    0.0000 C   0  0  0  0  0  0  0  0  0  0  0  0
    8.2430   -4.6747    0.0000 O   0  0  0  0  0  0  0  0  0  0  0  0
  1  2  1  0
  2  3  1  0
  3  4  1  0
  4  5  1  0
  5  6  1  0
  1  6  1  0
  4  7  1  0
  7  8  1  0
  8  9  2  0
  9 10  1  0
 10 11  2  0
 11 12  1  0
 12 13  2  0
  8 13  1  0
 10 14  1  0
 14 15  1  0
 15 16  1  0
 16 17  1  0
 17 18  1  0
 18 19  1  0
 19 20  2  0
 20 21  1  0
 21 22  2  0
 22 23  1  0
 23 24  2  0
 24 25  1  0
 25 26  2  0
 21 26  1  0
 26 27  1  0
 19 27  1  0
M  END
>  <name>  (280) 
CHEBI339055

>  <logBB>  (280) 
0.22

>  <logBB_class>  (280) 
1

>  <HAC>  (280) 
27

$$$$
MolID_90
     RDKit          2D

 28 31  0  0  0  0  0  0  0  0999 V2000
   -0.0248   -0.0345    0.0000 C   0  0  0  0  0  0  0  0  0  0  0  0
   -0.0248    0.7905    0.0000 C   0  0  0  0  0  0  0  0  0  0  0  0
    0.7599    1.0454    0.0000 C   0  0  0  0  0  0  0  0  0  0  0  0
    1.2448    0.3780    0.0000 C   0  0  0  0  0  0  0  0  0  0  0  0
    0.7599   -0.2895    0.0000 C   0  0  0  0  0  0  0  0  0  0  0  0
    1.6573    1.0924    0.0000 C   0  0  0  0  0  0  0  0  0  0  0  0
    2.4823    1.0924    0.0000 C   0  0  0  0  0  0  0  0  0  0  0  0
    2.8948    1.8069    0.0000 O   0  0  0  0  0  0  0  0  0  0  0  0
    2.8948    0.3780    0.0000 N   0  0  0  0  0  0  0  0  0  0  0  0
    2.4823   -0.3365    0.0000 C   0  0  0  0  0  0  0  0  0  0  0  0
    2.8948   -1.0510    0.0000 O   0  0  0  0  0  0  0  0  0  0  0  0
    1.6573   -0.3365    0.0000 C   0  0  0  0  0  0  0  0  0  0  0  0
    3.7198    0.3780    0.0000 C   0  0  0  0  0  0  0  0  0  0  0  0
    4.1323    1.0924    0.0000 C   0  0  0  0  0  0  0  0  0  0  0  0
    4.9573    1.0924    0.0000 C   0  0  0  0  0  0  0  0  0  0  0  0
    5.3698    1.8069    0.0000 C   0  0  0  0  0  0  0  0  0  0  0  0
    6.1948    1.8069    0.0000 N   0  0  0  0  0  0  0  0  0  0  0  0
    6.6073    2.5214    0.0000 C   0  0  0  0  0  0  0  0  0  0  0  0
    7.4323    2.5214    0.0000 C   0  0  0  0  0  0  0  0  0  0  0  0
    7.8448    1.8069    0.0000 N   0  0  0  0  0  0  0  0  0  0  0  0
    7.4323    1.0924    0.0000 C   0  0  0  0  0  0  0  0  0  0  0  0
    6.6073    1.0924    0.0000 C   0  0  0  0  0  0  0  0  0  0  0  0
    8.6698    1.8069    0.0000 C   0  0  0  0  0  0  0  0  0  0  0  0
    9.0823    2.5214    0.0000 N   0  0  0  0  0  0  0  0  0  0  0  0
    9.9073    2.5214    0.0000 C   0  0  0  0  0  0  0  0  0  0  0  0
   10.3198    1.8069    0.0000 C   0  0  0  0  0  0  0  0  0  0  0  0
    9.9073    1.0924    0.0000 C   0  0  0  0  0  0  0  0  0  0  0  0
    9.0823    1.0924    0.0000 N   0  0  0  0  0  0  0  0  0  0  0  0
  1  2  1  0
  2  3  1  0
  3  4  1  0
  4  5  1  0
  1  5  1  0
  4  6  1  0
  6  7  1  0
  7  8  2  0
  7  9  1  0
  9 10  1  0
 10 11  2  0
 10 12  1  0
  4 12  1  0
  9 13  1  0
 13 14  1  0
 14 15  1  0
 15 16  1  0
 16 17  1  0
 17 18  1  0
 18 19  1  0
 19 20  1  0
 20 21  1  0
 21 22  1  0
 17 22  1  0
 20 23  1  0
 23 24  2  0
 24 25  1  0
 25 26  2  0
 26 27  1  0
 27 28  2  0
 23 28  1  0
M  END
>  <name>  (281) 
buspirone

>  <logBB>  (281) 
0.49

>  <logBB_class>  (281) 
1

>  <HAC>  (281) 
28

$$$$
MolID_148
     RDKit          2D

 28 31  0  0  0  0  0  0  0  0999 V2000
    4.8246    1.7969    0.0000 C   0  0  0  0  0  0  0  0  0  0  0  0
    4.1101    2.2094    0.0000 O   0  0  0  0  0  0  0  0  0  0  0  0
    3.3956    1.7969    0.0000 C   0  0  0  0  0  0  0  0  0  0  0  0
    3.3956    0.9719    0.0000 C   0  0  0  0  0  0  0  0  0  0  0  0
    2.6812    0.5594    0.0000 C   0  0  0  0  0  0  0  0  0  0  0  0
    1.9667    0.9719    0.0000 C   0  0  0  0  0  0  0  0  0  0  0  0
    1.9667    1.7969    0.0000 C   0  0  0  0  0  0  0  0  0  0  0  0
    2.6812    2.2094    0.0000 C   0  0  0  0  0  0  0  0  0  0  0  0
    1.1821    2.0518    0.0000 C   0  0  0  0  0  0  0  0  0  0  0  0
    0.6971    1.3844    0.0000 C   0  0  0  0  0  0  0  0  0  0  0  0
    1.1821    0.7169    0.0000 C   0  0  0  0  0  0  0  0  0  0  0  0
    0.9271   -0.0677    0.0000 O   0  0  0  0  0  0  0  0  0  0  0  0
   -0.1279    1.3844    0.0000 C   0  0  0  0  0  0  0  0  0  0  0  0
   -0.5404    2.0988    0.0000 C   0  0  0  0  0  0  0  0  0  0  0  0
   -1.3654    2.0988    0.0000 C   0  0  0  0  0  0  0  0  0  0  0  0
   -1.7779    2.8133    0.0000 C   0  0  0  0  0  0  0  0  0  0  0  0
   -1.3654    3.5278    0.0000 N   0  0  0  0  0  0  0  0  0  0  0  0
   -0.5404    3.5278    0.0000 C   0  0  0  0  0  0  0  0  0  0  0  0
   -0.1279    2.8133    0.0000 C   0  0  0  0  0  0  0  0  0  0  0  0
   -1.7779    4.2422    0.0000 C   0  0  0  0  0  0  0  0  0  0  0  0
   -1.3654    4.9567    0.0000 C   0  0  0  0  0  0  0  0  0  0  0  0
   -1.7779    5.6712    0.0000 C   0  0  0  0  0  0  0  0  0  0  0  0
   -1.3654    6.3857    0.0000 C   0  0  0  0  0  0  0  0  0  0  0  0
   -0.5404    6.3857    0.0000 C   0  0  0  0  0  0  0  0  0  0  0  0
   -0.1279    5.6712    0.0000 C   0  0  0  0  0  0  0  0  0  0  0  0
   -0.5404    4.9567    0.0000 C   0  0  0  0  0  0  0  0  0  0  0  0
    4.1101    0.5594    0.0000 O   0  0  0  0  0  0  0  0  0  0  0  0
    4.1101   -0.2656    0.0000 C   0  0  0  0  0  0  0  0  0  0  0  0
  1  2  1  0
  2  3  1  0
  3  4  2  0
  4  5  1  0
  5  6  2  0
  6  7  1  0
  7  8  2  0
  3  8  1  0
  7  9  1  0
  9 10  1  0
 10 11  1  0
  6 11  1  0
 11 12  2  0
 10 13  1  0
 13 14  1  0
 14 15  1  0
 15 16  1  0
 16 17  1  0
 17 18  1  0
 18 19  1  0
 14 19  1  0
 17 20  1  0
 20 21  1  0
 21 22  2  0
 22 23  1  0
 23 24  2  0
 24 25  1  0
 25 26  2  0
 21 26  1  0
  4 27  1  0
 27 28  1  0
M  END
>  <name>  (282) 
donepezil

>  <logBB>  (282) 
0.89

>  <logBB_class>  (282) 
1

>  <HAC>  (282) 
28

$$$$
MolID_181
     RDKit          2D

 28 30  0  0  0  0  0  0  0  0999 V2000
   -0.7060   -8.6637    0.0000 C   0  0  0  0  0  0  0  0  0  0  0  0
   -0.7060   -7.8387    0.0000 C   0  0  0  0  0  0  0  0  0  0  0  0
   -1.4205   -7.4262    0.0000 N   0  0  0  0  0  0  0  0  0  0  0  0
   -1.4205   -6.6012    0.0000 C   0  0  0  0  0  0  0  0  0  0  0  0
   -0.7060   -6.1887    0.0000 C   0  0  0  0  0  0  0  0  0  0  0  0
    0.0084   -6.6012    0.0000 C   0  0  0  0  0  0  0  0  0  0  0  0
    0.0084   -7.4262    0.0000 C   0  0  0  0  0  0  0  0  0  0  0  0
   -0.7060   -5.3637    0.0000 C   0  0  0  0  0  0  0  0  0  0  0  0
    0.0084   -4.9512    0.0000 C   0  0  0  0  0  0  0  0  0  0  0  0
    0.0084   -4.1262    0.0000 C   0  0  0  0  0  0  0  0  0  0  0  0
    0.7229   -3.7137    0.0000 N   0  0  0  0  0  0  0  0  0  0  0  0
    1.4374   -4.1262    0.0000 C   0  0  0  0  0  0  0  0  0  0  0  0
    1.4374   -4.9512    0.0000 N   0  0  0  0  0  0  0  0  0  0  0  0
    0.7229   -5.3637    0.0000 C   0  0  0  0  0  0  0  0  0  0  0  0
    0.7229   -6.1887    0.0000 O   0  0  0  0  0  0  0  0  0  0  0  0
    2.1518   -3.7137    0.0000 N   0  0  0  0  0  0  0  0  0  0  0  0
    2.8663   -4.1262    0.0000 C   0  0  0  0  0  0  0  0  0  0  0  0
    3.5808   -3.7137    0.0000 C   0  0  0  0  0  0  0  0  0  0  0  0
    4.2953   -4.1262    0.0000 C   0  0  0  0  0  0  0  0  0  0  0  0
    5.0097   -3.7137    0.0000 C   0  0  0  0  0  0  0  0  0  0  0  0
    5.7242   -4.1262    0.0000 C   0  0  0  0  0  0  0  0  0  0  0  0
    6.4387   -3.7137    0.0000 C   0  0  0  0  0  0  0  0  0  0  0  0
    7.1531   -4.1262    0.0000 C   0  0  0  0  0  0  0  0  0  0  0  0
    7.1531   -4.9512    0.0000 C   0  0  0  0  0  0  0  0  0  0  0  0
    6.4387   -5.3637    0.0000 C   0  0  0  0  0  0  0  0  0  0  0  0
    5.7242   -4.9512    0.0000 N   0  0  0  0  0  0  0  0  0  0  0  0
    6.4387   -2.8887    0.0000 O   0  0  0  0  0  0  0  0  0  0  0  0
    7.1531   -2.4762    0.0000 C   0  0  0  0  0  0  0  0  0  0  0  0
  1  2  1  0
  2  3  2  0
  3  4  1  0
  4  5  2  0
  5  6  1  0
  6  7  2  0
  2  7  1  0
  5  8  1  0
  8  9  1  0
  9 10  2  0
 10 11  1  0
 11 12  2  0
 12 13  1  0
 13 14  1  0
  9 14  1  0
 14 15  2  0
 12 16  1  0
 16 17  1  0
 17 18  1  0
 18 19  1  0
 19 20  1  0
 20 21  1  0
 21 22  2  0
 22 23  1  0
 23 24  2  0
 24 25  1  0
 25 26  2  0
 21 26  1  0
 22 27  1  0
 27 28  1  0
M  END
>  <name>  (283) 
icotidine

>  <logBB>  (283) 
-2

>  <logBB_class>  (283) 
0

>  <HAC>  (283) 
28

$$$$
MolID_38
     RDKit          2D

 29 32  0  0  0  0  0  0  0  0999 V2000
    0.7670   -3.6934    0.0000 C   0  0  0  0  0  0  0  0  0  0  0  0
    1.4814   -4.1059    0.0000 C   0  0  0  0  0  0  0  0  0  0  0  0
    2.1959   -3.6934    0.0000 C   0  0  0  0  0  0  0  0  0  0  0  0
    2.9104   -4.1059    0.0000 C   0  0  0  0  0  0  0  0  0  0  0  0
    3.6249   -3.6934    0.0000 C   0  0  0  0  0  0  0  0  0  0  0  0
    4.3393   -4.1059    0.0000 C   0  0  0  0  0  0  0  0  0  0  0  0
    4.3393   -4.9309    0.0000 C   0  0  0  0  0  0  0  0  0  0  0  0
    3.6249   -5.3434    0.0000 C   0  0  0  0  0  0  0  0  0  0  0  0
    2.9104   -4.9309    0.0000 C   0  0  0  0  0  0  0  0  0  0  0  0
    2.1959   -2.8684    0.0000 N   0  0  0  0  0  0  0  0  0  0  0  0
    1.4814   -2.4559    0.0000 C   0  0  0  0  0  0  0  0  0  0  0  0
    0.7670   -2.8684    0.0000 O   0  0  0  0  0  0  0  0  0  0  0  0
    1.4814   -1.6309    0.0000 C   0  0  0  0  0  0  0  0  0  0  0  0
    0.7670   -1.2184    0.0000 C   0  0  0  0  0  0  0  0  0  0  0  0
    0.7670   -0.3934    0.0000 C   0  0  0  0  0  0  0  0  0  0  0  0
    1.4814    0.0191    0.0000 N   0  0  0  0  0  0  0  0  0  0  0  0
    2.1959   -0.3934    0.0000 C   0  0  0  0  0  0  0  0  0  0  0  0
    2.9104    0.0191    0.0000 C   0  0  0  0  0  0  0  0  0  0  0  0
    3.6249   -0.3934    0.0000 C   0  0  0  0  0  0  0  0  0  0  0  0
    3.6249   -1.2184    0.0000 C   0  0  0  0  0  0  0  0  0  0  0  0
    2.9104   -1.6309    0.0000 C   0  0  0  0  0  0  0  0  0  0  0  0
    2.1959   -1.2184    0.0000 C   0  0  0  0  0  0  0  0  0  0  0  0
    0.0525    0.0191    0.0000 C   0  0  0  0  0  0  0  0  0  0  0  0
   -0.6620   -0.3934    0.0000 C   0  0  0  0  0  0  0  0  0  0  0  0
   -1.3764    0.0191    0.0000 C   0  0  0  0  0  0  0  0  0  0  0  0
   -1.3764    0.8441    0.0000 C   0  0  0  0  0  0  0  0  0  0  0  0
   -0.6620    1.2566    0.0000 C   0  0  0  0  0  0  0  0  0  0  0  0
    0.0525    0.8441    0.0000 C   0  0  0  0  0  0  0  0  0  0  0  0
    0.0525   -1.6309    0.0000 C   0  0  0  0  0  0  0  0  0  0  0  0
  1  2  1  0
  2  3  1  0
  3  4  1  0
  4  5  2  0
  5  6  1  0
  6  7  2  0
  7  8  1  0
  8  9  2  0
  4  9  1  0
  3 10  1  0
 10 11  1  0
 11 12  2  0
 11 13  1  0
 13 14  2  0
 14 15  1  0
 15 16  2  0
 16 17  1  0
 17 18  2  0
 18 19  1  0
 19 20  2  0
 20 21  1  0
 21 22  2  0
 17 22  1  0
 13 22  1  0
 15 23  1  0
 23 24  2  0
 24 25  1  0
 25 26  2  0
 26 27  1  0
 27 28  2  0
 23 28  1  0
 14 29  1  0
M  END
>  <name>  (284) 
3-methyl-2-phenyl-N-(1-phenylpropyl)-quinoline-4-carboxamide

>  <logBB>  (284) 
0.3

>  <logBB_class>  (284) 
1

>  <HAC>  (284) 
29

$$$$
MolID_92
     RDKit          2D

 29 32  0  0  0  0  0  0  0  0999 V2000
    7.1821    0.7944    0.0000 C   0  0  0  0  0  0  0  0  0  0  0  0
    6.4677    1.2069    0.0000 C   0  0  0  0  0  0  0  0  0  0  0  0
    5.7532    0.7944    0.0000 C   0  0  0  0  0  0  0  0  0  0  0  0
    5.0387    1.2069    0.0000 C   0  0  0  0  0  0  0  0  0  0  0  0
    5.0387    2.0319    0.0000 O   0  0  0  0  0  0  0  0  0  0  0  0
    4.3242    0.7944    0.0000 C   0  0  0  0  0  0  0  0  0  0  0  0
    3.6098    1.2069    0.0000 C   0  0  0  0  0  0  0  0  0  0  0  0
    2.8953    0.7944    0.0000 C   0  0  0  0  0  0  0  0  0  0  0  0
    2.8953   -0.0306    0.0000 C   0  0  0  0  0  0  0  0  0  0  0  0
    3.6098   -0.4431    0.0000 C   0  0  0  0  0  0  0  0  0  0  0  0
    4.3242   -0.0306    0.0000 C   0  0  0  0  0  0  0  0  0  0  0  0
    2.1808   -0.4431    0.0000 S   0  0  0  0  0  0  0  0  0  0  0  0
    1.4664   -0.0306    0.0000 C   0  0  0  0  0  0  0  0  0  0  0  0
    0.7519   -0.4431    0.0000 C   0  0  0  0  0  0  0  0  0  0  0  0
    0.0374   -0.0306    0.0000 C   0  0  0  0  0  0  0  0  0  0  0  0
    0.0374    0.7944    0.0000 C   0  0  0  0  0  0  0  0  0  0  0  0
    0.7519    1.2069    0.0000 C   0  0  0  0  0  0  0  0  0  0  0  0
    1.4664    0.7944    0.0000 C   0  0  0  0  0  0  0  0  0  0  0  0
    2.1808    1.2069    0.0000 N   0  0  0  0  0  0  0  0  0  0  0  0
    2.1808    2.0319    0.0000 C   0  0  0  0  0  0  0  0  0  0  0  0
    2.8953    2.4444    0.0000 C   0  0  0  0  0  0  0  0  0  0  0  0
    2.8953    3.2694    0.0000 C   0  0  0  0  0  0  0  0  0  0  0  0
    2.1808    3.6819    0.0000 N   0  0  0  0  0  0  0  0  0  0  0  0
    1.4664    3.2694    0.0000 C   0  0  0  0  0  0  0  0  0  0  0  0
    0.7519    3.6819    0.0000 C   0  0  0  0  0  0  0  0  0  0  0  0
    0.7519    4.5069    0.0000 N   0  0  0  0  0  0  0  0  0  0  0  0
    1.4664    4.9194    0.0000 C   0  0  0  0  0  0  0  0  0  0  0  0
    2.1808    4.5069    0.0000 C   0  0  0  0  0  0  0  0  0  0  0  0
    0.0374    4.9194    0.0000 C   0  0  0  0  0  0  0  0  0  0  0  0
  1  2  1  0
  2  3  1  0
  3  4  1  0
  4  5  2  0
  4  6  1  0
  6  7  2  0
  7  8  1  0
  8  9  2  0
  9 10  1  0
 10 11  2  0
  6 11  1  0
  9 12  1  0
 12 13  1  0
 13 14  2  0
 14 15  1  0
 15 16  2  0
 16 17  1  0
 17 18  2  0
 13 18  1  0
 18 19  1  0
  8 19  1  0
 19 20  1  0
 20 21  1  0
 21 22  1  0
 22 23  1  0
 23 24  1  0
 24 25  1  0
 25 26  1  0
 26 27  1  0
 27 28  1  0
 23 28  1  0
 26 29  1  0
M  END
>  <name>  (285) 
butaperazine

>  <logBB>  (285) 
0.83

>  <logBB_class>  (285) 
1

>  <HAC>  (285) 
29

$$$$
MolID_179
     RDKit          2D

 29 32  0  0  0  0  0  0  0  0999 V2000
    8.1573    1.0449    0.0000 I   0  0  0  0  0  0  0  0  0  0  0  0
    7.4898    1.5298    0.0000 C   0  0  0  0  0  0  0  0  0  0  0  0
    6.7052    1.2749    0.0000 C   0  0  0  0  0  0  0  0  0  0  0  0
    6.2203    1.9423    0.0000 C   0  0  0  0  0  0  0  0  0  0  0  0
    5.3953    1.9423    0.0000 C   0  0  0  0  0  0  0  0  0  0  0  0
    4.9828    1.2279    0.0000 C   0  0  0  0  0  0  0  0  0  0  0  0
    4.1578    1.2279    0.0000 C   0  0  0  0  0  0  0  0  0  0  0  0
    3.7453    0.5134    0.0000 C   0  0  0  0  0  0  0  0  0  0  0  0
    2.9203    0.5134    0.0000 N   0  0  0  0  0  0  0  0  0  0  0  0
    2.5078   -0.2011    0.0000 C   0  0  0  0  0  0  0  0  0  0  0  0
    1.6828   -0.2011    0.0000 C   0  0  0  0  0  0  0  0  0  0  0  0
    1.2703    0.5134    0.0000 C   0  0  0  0  0  0  0  0  0  0  0  0
    1.6828    1.2279    0.0000 C   0  0  0  0  0  0  0  0  0  0  0  0
    2.5078    1.2279    0.0000 C   0  0  0  0  0  0  0  0  0  0  0  0
    0.7854   -0.1541    0.0000 C   0  0  0  0  0  0  0  0  0  0  0  0
    0.0007    0.1009    0.0000 N   0  0  0  0  0  0  0  0  0  0  0  0
    0.0007    0.9259    0.0000 C   0  0  0  0  0  0  0  0  0  0  0  0
    0.7854    1.1808    0.0000 N   0  0  0  0  0  0  0  0  0  0  0  0
    1.0403    1.9654    0.0000 C   0  0  0  0  0  0  0  0  0  0  0  0
    0.4883    2.5785    0.0000 C   0  0  0  0  0  0  0  0  0  0  0  0
    0.7432    3.3632    0.0000 C   0  0  0  0  0  0  0  0  0  0  0  0
    1.5502    3.5347    0.0000 C   0  0  0  0  0  0  0  0  0  0  0  0
    2.1022    2.9216    0.0000 C   0  0  0  0  0  0  0  0  0  0  0  0
    1.8473    2.1370    0.0000 C   0  0  0  0  0  0  0  0  0  0  0  0
   -0.6667   -0.3840    0.0000 C   0  0  0  0  0  0  0  0  0  0  0  0
    1.0403   -0.9387    0.0000 O   0  0  0  0  0  0  0  0  0  0  0  0
    4.9828    2.6568    0.0000 O   0  0  0  0  0  0  0  0  0  0  0  0
    6.7052    2.6098    0.0000 C   0  0  0  0  0  0  0  0  0  0  0  0
    7.4898    2.3548    0.0000 S   0  0  0  0  0  0  0  0  0  0  0  0
  1  2  1  0
  2  3  2  0
  3  4  1  0
  4  5  1  0
  5  6  1  0
  6  7  1  0
  7  8  1  0
  8  9  1  0
  9 10  1  0
 10 11  1  0
 11 12  1  0
 12 13  1  0
 13 14  1  0
  9 14  1  0
 12 15  1  0
 15 16  1  0
 16 17  1  0
 17 18  1  0
 12 18  1  0
 18 19  1  0
 19 20  2  0
 20 21  1  0
 21 22  2  0
 22 23  1  0
 23 24  2  0
 19 24  1  0
 16 25  1  0
 15 26  2  0
  5 27  2  0
  4 28  2  0
 28 29  1  0
  2 29  1  0
M  END
>  <name>  (286) 
I-1

>  <logBB>  (286) 
-0.25

>  <logBB_class>  (286) 
0

>  <HAC>  (286) 
29

$$$$
MolID_196
     RDKit          2D

 29 31  0  0  0  0  0  0  0  0999 V2000
   -6.6496   -8.3542    0.0000 C   0  0  0  0  0  0  0  0  0  0  0  0
   -6.3140   -7.6005    0.0000 N   0  0  0  0  0  0  0  0  0  0  0  0
   -6.7989   -6.9331    0.0000 C   0  0  0  0  0  0  0  0  0  0  0  0
   -5.4935   -7.5143    0.0000 C   0  0  0  0  0  0  0  0  0  0  0  0
   -5.1580   -6.7606    0.0000 C   0  0  0  0  0  0  0  0  0  0  0  0
   -5.5705   -6.0461    0.0000 C   0  0  0  0  0  0  0  0  0  0  0  0
   -5.0184   -5.4330    0.0000 C   0  0  0  0  0  0  0  0  0  0  0  0
   -4.2648   -5.7686    0.0000 C   0  0  0  0  0  0  0  0  0  0  0  0
   -3.5503   -5.3561    0.0000 C   0  0  0  0  0  0  0  0  0  0  0  0
   -2.8358   -5.7686    0.0000 S   0  0  0  0  0  0  0  0  0  0  0  0
   -2.1214   -5.3561    0.0000 C   0  0  0  0  0  0  0  0  0  0  0  0
   -1.4069   -5.7686    0.0000 C   0  0  0  0  0  0  0  0  0  0  0  0
   -0.6924   -5.3561    0.0000 N   0  0  0  0  0  0  0  0  0  0  0  0
    0.0221   -5.7686    0.0000 C   0  0  0  0  0  0  0  0  0  0  0  0
    0.7365   -5.3561    0.0000 N   0  0  0  0  0  0  0  0  0  0  0  0
    1.4510   -5.7686    0.0000 C   0  0  0  0  0  0  0  0  0  0  0  0
    1.4510   -6.5936    0.0000 C   0  0  0  0  0  0  0  0  0  0  0  0
    2.1655   -7.0061    0.0000 C   0  0  0  0  0  0  0  0  0  0  0  0
    2.8799   -6.5936    0.0000 C   0  0  0  0  0  0  0  0  0  0  0  0
    2.8799   -5.7686    0.0000 C   0  0  0  0  0  0  0  0  0  0  0  0
    3.5944   -5.3561    0.0000 C   0  0  0  0  0  0  0  0  0  0  0  0
    4.3089   -5.7686    0.0000 C   0  0  0  0  0  0  0  0  0  0  0  0
    5.0234   -5.3561    0.0000 C   0  0  0  0  0  0  0  0  0  0  0  0
    4.3089   -6.5936    0.0000 N   0  0  0  0  0  0  0  0  0  0  0  0
    3.5944   -7.0061    0.0000 C   0  0  0  0  0  0  0  0  0  0  0  0
    0.7365   -7.0061    0.0000 C   0  0  0  0  0  0  0  0  0  0  0  0
    0.7365   -7.8311    0.0000 O   0  0  0  0  0  0  0  0  0  0  0  0
    0.0221   -6.5936    0.0000 N   0  0  0  0  0  0  0  0  0  0  0  0
   -4.3510   -6.5891    0.0000 O   0  0  0  0  0  0  0  0  0  0  0  0
  1  2  1  0
  2  3  1  0
  2  4  1  0
  4  5  1  0
  5  6  2  0
  6  7  1  0
  7  8  2  0
  8  9  1  0
  9 10  1  0
 10 11  1  0
 11 12  1  0
 12 13  1  0
 13 14  1  0
 14 15  2  0
 15 16  1  0
 16 17  2  0
 17 18  1  0
 18 19  1  0
 19 20  2  0
 20 21  1  0
 21 22  2  0
 22 23  1  0
 22 24  1  0
 24 25  2  0
 19 25  1  0
 17 26  1  0
 26 27  2  0
 26 28  1  0
 14 28  1  0
  8 29  1  0
  5 29  1  0
M  END
>  <name>  (287) 
lupitidine

>  <logBB>  (287) 
-1.06

>  <logBB_class>  (287) 
0

>  <HAC>  (287) 
29

$$$$
MolID_147
     RDKit          2D

 30 34  0  0  0  0  0  0  0  0999 V2000
   -6.1815   -1.9976    0.0000 Cl  0  0  0  0  0  0  0  0  0  0  0  0
   -5.4670   -2.4101    0.0000 C   0  0  0  0  0  0  0  0  0  0  0  0
   -4.7526   -1.9976    0.0000 C   0  0  0  0  0  0  0  0  0  0  0  0
   -4.0381   -2.4101    0.0000 C   0  0  0  0  0  0  0  0  0  0  0  0
   -4.0381   -3.2351    0.0000 C   0  0  0  0  0  0  0  0  0  0  0  0
   -3.4250   -3.7871    0.0000 N   0  0  0  0  0  0  0  0  0  0  0  0
   -3.7606   -4.5408    0.0000 C   0  0  0  0  0  0  0  0  0  0  0  0
   -4.5810   -4.4545    0.0000 N   0  0  0  0  0  0  0  0  0  0  0  0
   -4.7526   -3.6476    0.0000 C   0  0  0  0  0  0  0  0  0  0  0  0
   -5.4670   -3.2351    0.0000 C   0  0  0  0  0  0  0  0  0  0  0  0
   -3.3481   -5.2552    0.0000 O   0  0  0  0  0  0  0  0  0  0  0  0
   -2.6180   -3.6156    0.0000 C   0  0  0  0  0  0  0  0  0  0  0  0
   -2.3631   -2.8309    0.0000 C   0  0  0  0  0  0  0  0  0  0  0  0
   -1.5561   -2.6594    0.0000 C   0  0  0  0  0  0  0  0  0  0  0  0
   -1.0041   -3.2725    0.0000 N   0  0  0  0  0  0  0  0  0  0  0  0
   -1.2590   -4.0571    0.0000 C   0  0  0  0  0  0  0  0  0  0  0  0
   -2.0660   -4.2287    0.0000 C   0  0  0  0  0  0  0  0  0  0  0  0
   -0.1971   -3.1010    0.0000 C   0  0  0  0  0  0  0  0  0  0  0  0
    0.0578   -2.3164    0.0000 C   0  0  0  0  0  0  0  0  0  0  0  0
    0.8648   -2.1448    0.0000 C   0  0  0  0  0  0  0  0  0  0  0  0
    1.1197   -1.3602    0.0000 N   0  0  0  0  0  0  0  0  0  0  0  0
    0.6348   -0.6928    0.0000 C   0  0  0  0  0  0  0  0  0  0  0  0
    1.1197   -0.0253    0.0000 N   0  0  0  0  0  0  0  0  0  0  0  0
    1.9044   -0.2803    0.0000 C   0  0  0  0  0  0  0  0  0  0  0  0
    2.6188    0.1322    0.0000 C   0  0  0  0  0  0  0  0  0  0  0  0
    3.3333   -0.2803    0.0000 C   0  0  0  0  0  0  0  0  0  0  0  0
    3.3333   -1.1053    0.0000 C   0  0  0  0  0  0  0  0  0  0  0  0
    2.6188   -1.5178    0.0000 C   0  0  0  0  0  0  0  0  0  0  0  0
    1.9044   -1.1053    0.0000 C   0  0  0  0  0  0  0  0  0  0  0  0
   -0.1902   -0.6928    0.0000 O   0  0  0  0  0  0  0  0  0  0  0  0
  1  2  1  0
  2  3  2  0
  3  4  1  0
  4  5  2  0
  5  6  1  0
  6  7  1  0
  7  8  1  0
  8  9  1  0
  5  9  1  0
  9 10  2  0
  2 10  1  0
  7 11  2  0
  6 12  1  0
 12 13  1  0
 13 14  1  0
 14 15  1  0
 15 16  1  0
 16 17  1  0
 12 17  1  0
 15 18  1  0
 18 19  1  0
 19 20  1  0
 20 21  1  0
 21 22  1  0
 22 23  1  0
 23 24  1  0
 24 25  2  0
 25 26  1  0
 26 27  2  0
 27 28  1  0
 28 29  2  0
 21 29  1  0
 24 29  1  0
 22 30  2  0
M  END
>  <name>  (288) 
domperidone

>  <logBB>  (288) 
-0.93

>  <logBB_class>  (288) 
0

>  <HAC>  (288) 
30

$$$$
MolID_163
     RDKit          2D

 30 33  0  0  0  0  0  0  0  0999 V2000
   -0.6601   -3.7950    0.0000 C   0  0  0  0  0  0  0  0  0  0  0  0
   -0.6601   -2.9700    0.0000 C   0  0  0  0  0  0  0  0  0  0  0  0
    0.0544   -2.5575    0.0000 N   0  0  0  0  0  0  0  0  0  0  0  0
    0.7689   -2.9700    0.0000 C   0  0  0  0  0  0  0  0  0  0  0  0
    0.7689   -3.7950    0.0000 C   0  0  0  0  0  0  0  0  0  0  0  0
    0.0544   -4.2075    0.0000 N   0  0  0  0  0  0  0  0  0  0  0  0
    0.0544   -5.0325    0.0000 C   0  0  0  0  0  0  0  0  0  0  0  0
    0.7689   -5.4450    0.0000 C   0  0  0  0  0  0  0  0  0  0  0  0
    0.7689   -6.2700    0.0000 N   0  0  0  0  0  0  0  0  0  0  0  0
    1.4833   -6.6825    0.0000 C   0  0  0  0  0  0  0  0  0  0  0  0
    2.1978   -6.2700    0.0000 O   0  0  0  0  0  0  0  0  0  0  0  0
    1.4833   -7.5075    0.0000 C   0  0  0  0  0  0  0  0  0  0  0  0
    2.1978   -7.9200    0.0000 C   0  0  0  0  0  0  0  0  0  0  0  0
    2.1978   -8.7450    0.0000 C   0  0  0  0  0  0  0  0  0  0  0  0
    1.4833   -9.1575    0.0000 C   0  0  0  0  0  0  0  0  0  0  0  0
    0.7689   -8.7450    0.0000 C   0  0  0  0  0  0  0  0  0  0  0  0
    0.7689   -7.9200    0.0000 C   0  0  0  0  0  0  0  0  0  0  0  0
    1.4833   -9.9825    0.0000 F   0  0  0  0  0  0  0  0  0  0  0  0
    0.0544   -1.7325    0.0000 C   0  0  0  0  0  0  0  0  0  0  0  0
    0.7689   -1.3200    0.0000 C   0  0  0  0  0  0  0  0  0  0  0  0
    0.7689   -0.4950    0.0000 C   0  0  0  0  0  0  0  0  0  0  0  0
    0.0544   -0.0825    0.0000 C   0  0  0  0  0  0  0  0  0  0  0  0
   -0.6601   -0.4950    0.0000 C   0  0  0  0  0  0  0  0  0  0  0  0
   -0.6601   -1.3200    0.0000 C   0  0  0  0  0  0  0  0  0  0  0  0
    1.4833   -0.0825    0.0000 O   0  0  0  0  0  0  0  0  0  0  0  0
    2.1978   -0.4950    0.0000 C   0  0  0  0  0  0  0  0  0  0  0  0
    2.1978   -1.3200    0.0000 C   0  0  0  0  0  0  0  0  0  0  0  0
    1.4833   -1.7325    0.0000 O   0  0  0  0  0  0  0  0  0  0  0  0
    2.9123   -0.0825    0.0000 C   0  0  0  0  0  0  0  0  0  0  0  0
    2.9123    0.7425    0.0000 O   0  0  0  0  0  0  0  0  0  0  0  0
  1  2  1  0
  2  3  1  0
  3  4  1  0
  4  5  1  0
  5  6  1  0
  1  6  1  0
  6  7  1  0
  7  8  1  0
  8  9  1  0
  9 10  1  0
 10 11  2  0
 10 12  1  0
 12 13  2  0
 13 14  1  0
 14 15  2  0
 15 16  1  0
 16 17  2  0
 12 17  1  0
 15 18  1  0
  3 19  1  0
 19 20  2  0
 20 21  1  0
 21 22  2  0
 22 23  1  0
 23 24  2  0
 19 24  1  0
 21 25  1  0
 25 26  1  0
 26 27  1  0
 27 28  1  0
 20 28  1  0
 26 29  1  0
 29 30  1  0
M  END
>  <name>  (289) 
flesinoxan

>  <logBB>  (289) 
-0.45

>  <logBB_class>  (289) 
0

>  <HAC>  (289) 
30

$$$$
MolID_51
     RDKit          2D

 31 35  0  0  0  0  0  0  0  0999 V2000
    1.1116   -1.6908    0.0000 C   0  0  0  0  0  0  0  0  0  0  0  0
    0.3046   -1.5193    0.0000 C   0  0  0  0  0  0  0  0  0  0  0  0
   -0.2475   -2.1324    0.0000 C   0  0  0  0  0  0  0  0  0  0  0  0
   -1.0544   -1.9608    0.0000 C   0  0  0  0  0  0  0  0  0  0  0  0
   -1.6065   -2.5739    0.0000 O   0  0  0  0  0  0  0  0  0  0  0  0
   -1.3094   -1.1762    0.0000 N   0  0  0  0  0  0  0  0  0  0  0  0
   -2.1163   -1.0047    0.0000 C   0  0  0  0  0  0  0  0  0  0  0  0
   -2.3713   -0.2201    0.0000 C   0  0  0  0  0  0  0  0  0  0  0  0
   -1.8192    0.3930    0.0000 C   0  0  0  0  0  0  0  0  0  0  0  0
   -1.0123    0.2215    0.0000 C   0  0  0  0  0  0  0  0  0  0  0  0
   -0.7573   -0.5631    0.0000 C   0  0  0  0  0  0  0  0  0  0  0  0
    0.0496   -0.7346    0.0000 N   0  0  0  0  0  0  0  0  0  0  0  0
   -3.1782   -0.0485    0.0000 O   0  0  0  0  0  0  0  0  0  0  0  0
    0.0075   -2.9170    0.0000 C   0  0  0  0  0  0  0  0  0  0  0  0
    0.8145   -3.0885    0.0000 C   0  0  0  0  0  0  0  0  0  0  0  0
    1.0694   -3.8731    0.0000 N   0  0  0  0  0  0  0  0  0  0  0  0
    1.8764   -4.0447    0.0000 C   0  0  0  0  0  0  0  0  0  0  0  0
    2.1313   -4.8293    0.0000 C   0  0  0  0  0  0  0  0  0  0  0  0
    1.5793   -5.4424    0.0000 C   0  0  0  0  0  0  0  0  0  0  0  0
    0.7723   -5.2708    0.0000 C   0  0  0  0  0  0  0  0  0  0  0  0
    0.5174   -4.4862    0.0000 C   0  0  0  0  0  0  0  0  0  0  0  0
    1.8342   -6.2270    0.0000 C   0  0  0  0  0  0  0  0  0  0  0  0
    1.3493   -6.8944    0.0000 N   0  0  0  0  0  0  0  0  0  0  0  0
    1.8342   -7.5619    0.0000 O   0  0  0  0  0  0  0  0  0  0  0  0
    2.6188   -7.3069    0.0000 C   0  0  0  0  0  0  0  0  0  0  0  0
    2.6188   -6.4819    0.0000 C   0  0  0  0  0  0  0  0  0  0  0  0
    3.3333   -6.0694    0.0000 C   0  0  0  0  0  0  0  0  0  0  0  0
    4.0478   -6.4819    0.0000 C   0  0  0  0  0  0  0  0  0  0  0  0
    4.0478   -7.3069    0.0000 C   0  0  0  0  0  0  0  0  0  0  0  0
    3.3333   -7.7194    0.0000 C   0  0  0  0  0  0  0  0  0  0  0  0
    4.7622   -7.7194    0.0000 F   0  0  0  0  0  0  0  0  0  0  0  0
  1  2  1  0
  2  3  2  0
  3  4  1  0
  4  5  2  0
  4  6  1  0
  6  7  1  0
  7  8  1  0
  8  9  1  0
  9 10  1  0
 10 11  1  0
  6 11  1  0
 11 12  2  0
  2 12  1  0
  8 13  1  0
  3 14  1  0
 14 15  1  0
 15 16  1  0
 16 17  1  0
 17 18  1  0
 18 19  1  0
 19 20  1  0
 20 21  1  0
 16 21  1  0
 19 22  1  0
 22 23  2  0
 23 24  1  0
 24 25  1  0
 25 26  2  0
 22 26  1  0
 26 27  1  0
 27 28  2  0
 28 29  1  0
 29 30  2  0
 25 30  1  0
 29 31  1  0
M  END
>  <name>  (290) 
9-hydroxyrisperidone

>  <logBB>  (290) 
-0.67

>  <logBB_class>  (290) 
0

>  <HAC>  (290) 
31

$$$$
MolID_85
     RDKit          2D

 31 34  0  0  0  0  0  0  0  0999 V2000
    1.7577    4.2753    0.0000 Br  0  0  0  0  0  0  0  0  0  0  0  0
    1.5028    3.4906    0.0000 C   0  0  0  0  0  0  0  0  0  0  0  0
    2.0548    2.8775    0.0000 C   0  0  0  0  0  0  0  0  0  0  0  0
    1.7999    2.0929    0.0000 C   0  0  0  0  0  0  0  0  0  0  0  0
    0.9929    1.9214    0.0000 C   0  0  0  0  0  0  0  0  0  0  0  0
    0.7379    1.1368    0.0000 N   0  0  0  0  0  0  0  0  0  0  0  0
    1.2229    0.4693    0.0000 C   0  0  0  0  0  0  0  0  0  0  0  0
    0.7379   -0.1981    0.0000 C   0  0  0  0  0  0  0  0  0  0  0  0
   -0.0467    0.0568    0.0000 N   0  0  0  0  0  0  0  0  0  0  0  0
   -0.7141   -0.4281    0.0000 C   0  0  0  0  0  0  0  0  0  0  0  0
   -0.0467    0.8818    0.0000 C   0  0  0  0  0  0  0  0  0  0  0  0
    0.9929   -0.9827    0.0000 O   0  0  0  0  0  0  0  0  0  0  0  0
    1.6354    1.1838    0.0000 C   0  0  0  0  0  0  0  0  0  0  0  0
    2.4604    1.1838    0.0000 C   0  0  0  0  0  0  0  0  0  0  0  0
    2.8729    0.4693    0.0000 N   0  0  0  0  0  0  0  0  0  0  0  0
    2.4604   -0.2451    0.0000 C   0  0  0  0  0  0  0  0  0  0  0  0
    1.6354   -0.2451    0.0000 C   0  0  0  0  0  0  0  0  0  0  0  0
    3.6979    0.4693    0.0000 C   0  0  0  0  0  0  0  0  0  0  0  0
    4.1104    1.1838    0.0000 C   0  0  0  0  0  0  0  0  0  0  0  0
    4.9354    1.1838    0.0000 C   0  0  0  0  0  0  0  0  0  0  0  0
    5.3479    1.8983    0.0000 C   0  0  0  0  0  0  0  0  0  0  0  0
    6.1729    1.8983    0.0000 C   0  0  0  0  0  0  0  0  0  0  0  0
    6.5854    2.6128    0.0000 C   0  0  0  0  0  0  0  0  0  0  0  0
    7.4104    2.6128    0.0000 C   0  0  0  0  0  0  0  0  0  0  0  0
    7.8229    1.8983    0.0000 C   0  0  0  0  0  0  0  0  0  0  0  0
    8.6479    1.8983    0.0000 F   0  0  0  0  0  0  0  0  0  0  0  0
    7.4104    1.1838    0.0000 C   0  0  0  0  0  0  0  0  0  0  0  0
    6.5854    1.1838    0.0000 C   0  0  0  0  0  0  0  0  0  0  0  0
    4.9354    2.6128    0.0000 O   0  0  0  0  0  0  0  0  0  0  0  0
    0.4409    2.5345    0.0000 C   0  0  0  0  0  0  0  0  0  0  0  0
    0.6958    3.3191    0.0000 C   0  0  0  0  0  0  0  0  0  0  0  0
  1  2  1  0
  2  3  2  0
  3  4  1  0
  4  5  2  0
  5  6  1  0
  6  7  1  0
  7  8  1  0
  8  9  1  0
  9 10  1  0
  9 11  1  0
  6 11  1  0
  8 12  2  0
  7 13  1  0
 13 14  1  0
 14 15  1  0
 15 16  1  0
 16 17  1  0
  7 17  1  0
 15 18  1  0
 18 19  1  0
 19 20  1  0
 20 21  1  0
 21 22  1  0
 22 23  2  0
 23 24  1  0
 24 25  2  0
 25 26  1  0
 25 27  1  0
 27 28  2  0
 22 28  1  0
 21 29  2  0
  5 30  1  0
 30 31  2  0
  2 31  1  0
M  END
>  <name>  (291) 
BMSP

>  <logBB>  (291) 
-0.55

>  <logBB_class>  (291) 
0

>  <HAC>  (291) 
31

$$$$
MolID_7
     RDKit          2D

 32 35  0  0  0  0  0  0  0  0999 V2000
    1.1989  -10.4062    0.0000 C   0  0  0  0  0  0  0  0  0  0  0  0
    1.5345   -9.6526    0.0000 N   0  0  0  0  0  0  0  0  0  0  0  0
    1.0496   -8.9851    0.0000 C   0  0  0  0  0  0  0  0  0  0  0  0
    2.3550   -9.5663    0.0000 C   0  0  0  0  0  0  0  0  0  0  0  0
    2.6905   -8.8126    0.0000 C   0  0  0  0  0  0  0  0  0  0  0  0
    2.2780   -8.0982    0.0000 C   0  0  0  0  0  0  0  0  0  0  0  0
    2.8301   -7.4851    0.0000 C   0  0  0  0  0  0  0  0  0  0  0  0
    3.5837   -7.8206    0.0000 C   0  0  0  0  0  0  0  0  0  0  0  0
    4.2982   -7.4081    0.0000 C   0  0  0  0  0  0  0  0  0  0  0  0
    5.0127   -7.8206    0.0000 S   0  0  0  0  0  0  0  0  0  0  0  0
    5.7271   -7.4081    0.0000 C   0  0  0  0  0  0  0  0  0  0  0  0
    6.4416   -7.8206    0.0000 C   0  0  0  0  0  0  0  0  0  0  0  0
    7.1561   -7.4081    0.0000 N   0  0  0  0  0  0  0  0  0  0  0  0
    7.8706   -7.8206    0.0000 C   0  0  0  0  0  0  0  0  0  0  0  0
    8.5850   -7.4081    0.0000 N   0  0  0  0  0  0  0  0  0  0  0  0
    9.2995   -7.8206    0.0000 C   0  0  0  0  0  0  0  0  0  0  0  0
   10.0140   -7.4081    0.0000 O   0  0  0  0  0  0  0  0  0  0  0  0
    9.2995   -8.6456    0.0000 C   0  0  0  0  0  0  0  0  0  0  0  0
   10.0140   -9.0581    0.0000 C   0  0  0  0  0  0  0  0  0  0  0  0
   10.7284   -8.6456    0.0000 C   0  0  0  0  0  0  0  0  0  0  0  0
   10.7284   -7.8206    0.0000 C   0  0  0  0  0  0  0  0  0  0  0  0
   11.4429   -7.4081    0.0000 C   0  0  0  0  0  0  0  0  0  0  0  0
   12.1574   -7.8206    0.0000 C   0  0  0  0  0  0  0  0  0  0  0  0
   12.8718   -7.4081    0.0000 C   0  0  0  0  0  0  0  0  0  0  0  0
   13.5863   -7.8206    0.0000 C   0  0  0  0  0  0  0  0  0  0  0  0
   13.5863   -8.6456    0.0000 C   0  0  0  0  0  0  0  0  0  0  0  0
   12.8718   -9.0581    0.0000 C   0  0  0  0  0  0  0  0  0  0  0  0
   12.1574   -8.6456    0.0000 C   0  0  0  0  0  0  0  0  0  0  0  0
   11.4429   -9.0581    0.0000 C   0  0  0  0  0  0  0  0  0  0  0  0
    8.5850   -9.0581    0.0000 C   0  0  0  0  0  0  0  0  0  0  0  0
    7.8706   -8.6456    0.0000 N   0  0  0  0  0  0  0  0  0  0  0  0
    3.4975   -8.6411    0.0000 O   0  0  0  0  0  0  0  0  0  0  0  0
  1  2  1  0
  2  3  1  0
  2  4  1  0
  4  5  1  0
  5  6  2  0
  6  7  1  0
  7  8  2  0
  8  9  1  0
  9 10  1  0
 10 11  1  0
 11 12  1  0
 12 13  1  0
 13 14  1  0
 14 15  1  0
 15 16  1  0
 16 17  2  0
 16 18  1  0
 18 19  1  0
 19 20  1  0
 20 21  2  0
 21 22  1  0
 22 23  2  0
 23 24  1  0
 24 25  2  0
 25 26  1  0
 26 27  2  0
 27 28  1  0
 23 28  1  0
 28 29  2  0
 20 29  1  0
 18 30  2  0
 30 31  1  0
 14 31  2  0
  8 32  1  0
  5 32  1  0
M  END
>  <name>  (292) 
24

>  <logBB>  (292) 
-1.3

>  <logBB_class>  (292) 
0

>  <HAC>  (292) 
32

$$$$
MolID_80
     RDKit          2D

 32 35  0  0  0  0  0  0  0  0999 V2000
   -0.6395   -1.2987    0.0000 C   0  0  0  0  0  0  0  0  0  0  0  0
   -0.7257   -0.4783    0.0000 C   0  0  0  0  0  0  0  0  0  0  0  0
   -0.0583    0.0067    0.0000 N   0  0  0  0  0  0  0  0  0  0  0  0
   -0.0583    0.8317    0.0000 C   0  0  0  0  0  0  0  0  0  0  0  0
    0.7263    1.0866    0.0000 N   0  0  0  0  0  0  0  0  0  0  0  0
    0.9813    1.8712    0.0000 C   0  0  0  0  0  0  0  0  0  0  0  0
    0.4292    2.4843    0.0000 C   0  0  0  0  0  0  0  0  0  0  0  0
    0.6842    3.2689    0.0000 C   0  0  0  0  0  0  0  0  0  0  0  0
    1.4912    3.4405    0.0000 C   0  0  0  0  0  0  0  0  0  0  0  0
    1.7461    4.2251    0.0000 Br  0  0  0  0  0  0  0  0  0  0  0  0
    2.0432    2.8274    0.0000 C   0  0  0  0  0  0  0  0  0  0  0  0
    1.7882    2.0427    0.0000 C   0  0  0  0  0  0  0  0  0  0  0  0
    1.2113    0.4192    0.0000 C   0  0  0  0  0  0  0  0  0  0  0  0
    0.7263   -0.2483    0.0000 C   0  0  0  0  0  0  0  0  0  0  0  0
    0.9813   -1.0329    0.0000 O   0  0  0  0  0  0  0  0  0  0  0  0
    1.6238    1.1336    0.0000 C   0  0  0  0  0  0  0  0  0  0  0  0
    2.4488    1.1336    0.0000 C   0  0  0  0  0  0  0  0  0  0  0  0
    2.8613    0.4192    0.0000 N   0  0  0  0  0  0  0  0  0  0  0  0
    2.4488   -0.2953    0.0000 C   0  0  0  0  0  0  0  0  0  0  0  0
    1.6238   -0.2953    0.0000 C   0  0  0  0  0  0  0  0  0  0  0  0
    3.6863    0.4192    0.0000 C   0  0  0  0  0  0  0  0  0  0  0  0
    4.0988    1.1336    0.0000 C   0  0  0  0  0  0  0  0  0  0  0  0
    4.9238    1.1336    0.0000 C   0  0  0  0  0  0  0  0  0  0  0  0
    5.3363    1.8481    0.0000 C   0  0  0  0  0  0  0  0  0  0  0  0
    6.1613    1.8481    0.0000 C   0  0  0  0  0  0  0  0  0  0  0  0
    6.5738    2.5626    0.0000 C   0  0  0  0  0  0  0  0  0  0  0  0
    7.3988    2.5626    0.0000 C   0  0  0  0  0  0  0  0  0  0  0  0
    7.8113    1.8481    0.0000 C   0  0  0  0  0  0  0  0  0  0  0  0
    7.3988    1.1336    0.0000 C   0  0  0  0  0  0  0  0  0  0  0  0
    6.5738    1.1336    0.0000 C   0  0  0  0  0  0  0  0  0  0  0  0
    8.6363    1.8481    0.0000 F   0  0  0  0  0  0  0  0  0  0  0  0
    4.9238    2.5626    0.0000 O   0  0  0  0  0  0  0  0  0  0  0  0
  1  2  1  0
  2  3  1  0
  3  4  1  0
  4  5  1  0
  5  6  1  0
  6  7  2  0
  7  8  1  0
  8  9  2  0
  9 10  1  0
  9 11  1  0
 11 12  2  0
  6 12  1  0
  5 13  1  0
 13 14  1  0
  3 14  1  0
 14 15  2  0
 13 16  1  0
 16 17  1  0
 17 18  1  0
 18 19  1  0
 19 20  1  0
 13 20  1  0
 18 21  1  0
 21 22  1  0
 22 23  1  0
 23 24  1  0
 24 25  1  0
 25 26  2  0
 26 27  1  0
 27 28  2  0
 28 29  1  0
 29 30  2  0
 25 30  1  0
 28 31  1  0
 24 32  2  0
M  END
>  <name>  (293) 
BESP

>  <logBB>  (293) 
-0.43

>  <logBB_class>  (293) 
0

>  <HAC>  (293) 
32

$$$$
MolID_134
     RDKit          2D

 32 36  0  0  0  0  0  0  0  0999 V2000
    5.1018   -0.2626    0.0000 C   0  0  0  0  0  0  0  0  0  0  0  0
    4.2948   -0.0911    0.0000 C   0  0  0  0  0  0  0  0  0  0  0  0
    4.2086    0.7294    0.0000 N   0  0  0  0  0  0  0  0  0  0  0  0
    4.9622    1.0650    0.0000 C   0  0  0  0  0  0  0  0  0  0  0  0
    5.5143    0.4519    0.0000 C   0  0  0  0  0  0  0  0  0  0  0  0
    6.3348    0.5381    0.0000 C   0  0  0  0  0  0  0  0  0  0  0  0
    7.1552    0.6243    0.0000 C   0  0  0  0  0  0  0  0  0  0  0  0
    7.4908    1.3780    0.0000 C   0  0  0  0  0  0  0  0  0  0  0  0
    8.3113    1.4642    0.0000 C   0  0  0  0  0  0  0  0  0  0  0  0
    8.7962    0.7968    0.0000 C   0  0  0  0  0  0  0  0  0  0  0  0
    8.4606    0.0431    0.0000 C   0  0  0  0  0  0  0  0  0  0  0  0
    7.6402   -0.0431    0.0000 C   0  0  0  0  0  0  0  0  0  0  0  0
    6.2485    1.3586    0.0000 C   0  0  0  0  0  0  0  0  0  0  0  0
    5.4948    1.6941    0.0000 C   0  0  0  0  0  0  0  0  0  0  0  0
    5.4086    2.5146    0.0000 C   0  0  0  0  0  0  0  0  0  0  0  0
    6.0760    2.9995    0.0000 C   0  0  0  0  0  0  0  0  0  0  0  0
    6.8297    2.6640    0.0000 C   0  0  0  0  0  0  0  0  0  0  0  0
    6.9160    1.8435    0.0000 C   0  0  0  0  0  0  0  0  0  0  0  0
    6.4210   -0.2824    0.0000 C   0  0  0  0  0  0  0  0  0  0  0  0
    7.1747   -0.6179    0.0000 O   0  0  0  0  0  0  0  0  0  0  0  0
    5.7536   -0.7673    0.0000 N   0  0  0  0  0  0  0  0  0  0  0  0
    3.4941    1.1419    0.0000 C   0  0  0  0  0  0  0  0  0  0  0  0
    2.7796    0.7294    0.0000 C   0  0  0  0  0  0  0  0  0  0  0  0
    2.0652    1.1419    0.0000 C   0  0  0  0  0  0  0  0  0  0  0  0
    1.3507    0.7294    0.0000 C   0  0  0  0  0  0  0  0  0  0  0  0
    0.6362    1.1419    0.0000 C   0  0  0  0  0  0  0  0  0  0  0  0
    0.6362    1.9669    0.0000 C   0  0  0  0  0  0  0  0  0  0  0  0
    1.3507    2.3794    0.0000 C   0  0  0  0  0  0  0  0  0  0  0  0
    2.0652    1.9669    0.0000 C   0  0  0  0  0  0  0  0  0  0  0  0
   -0.1484    2.2218    0.0000 O   0  0  0  0  0  0  0  0  0  0  0  0
   -0.6333    1.5544    0.0000 C   0  0  0  0  0  0  0  0  0  0  0  0
   -0.1484    0.8870    0.0000 C   0  0  0  0  0  0  0  0  0  0  0  0
  1  2  1  0
  2  3  1  0
  3  4  1  0
  4  5  1  0
  1  5  1  0
  5  6  1  0
  6  7  1  0
  7  8  2  0
  8  9  1  0
  9 10  2  0
 10 11  1  0
 11 12  2  0
  7 12  1  0
  6 13  1  0
 13 14  2  0
 14 15  1  0
 15 16  2  0
 16 17  1  0
 17 18  2  0
 13 18  1  0
  6 19  1  0
 19 20  2  0
 19 21  1  0
  3 22  1  0
 22 23  1  0
 23 24  1  0
 24 25  2  0
 25 26  1  0
 26 27  2  0
 27 28  1  0
 28 29  2  0
 24 29  1  0
 27 30  1  0
 30 31  1  0
 31 32  1  0
 26 32  1  0
M  END
>  <name>  (294) 
darifenacin

>  <logBB>  (294) 
-0.62

>  <logBB_class>  (294) 
0

>  <HAC>  (294) 
32

$$$$
MolID_152
     RDKit          2D

 34 38  0  0  0  0  0  0  0  0999 V2000
    6.9715    1.4211    0.0000 C   0  0  0  0  0  0  0  0  0  0  0  0
    6.1962    1.1389    0.0000 C   0  0  0  0  0  0  0  0  0  0  0  0
    5.3712    1.1389    0.0000 C   0  0  0  0  0  0  0  0  0  0  0  0
    4.9587    1.8534    0.0000 C   0  0  0  0  0  0  0  0  0  0  0  0
    4.1337    1.8534    0.0000 C   0  0  0  0  0  0  0  0  0  0  0  0
    3.7212    1.1389    0.0000 C   0  0  0  0  0  0  0  0  0  0  0  0
    4.1337    0.4245    0.0000 C   0  0  0  0  0  0  0  0  0  0  0  0
    4.9587    0.4245    0.0000 C   0  0  0  0  0  0  0  0  0  0  0  0
    5.3712   -0.2900    0.0000 C   0  0  0  0  0  0  0  0  0  0  0  0
    6.1962   -0.2900    0.0000 C   0  0  0  0  0  0  0  0  0  0  0  0
    6.6087    0.4245    0.0000 C   0  0  0  0  0  0  0  0  0  0  0  0
    7.4337    0.4245    0.0000 O   0  0  0  0  0  0  0  0  0  0  0  0
    4.5462   -0.2900    0.0000 C   0  0  0  0  0  0  0  0  0  0  0  0
    3.7212   -0.2900    0.0000 C   0  0  0  0  0  0  0  0  0  0  0  0
    4.1337   -1.0045    0.0000 O   0  0  0  0  0  0  0  0  0  0  0  0
    2.8962   -0.2900    0.0000 C   0  0  0  0  0  0  0  0  0  0  0  0
    2.4837    0.4245    0.0000 C   0  0  0  0  0  0  0  0  0  0  0  0
    2.8962    1.1389    0.0000 C   0  0  0  0  0  0  0  0  0  0  0  0
    2.4837    1.8534    0.0000 C   0  0  0  0  0  0  0  0  0  0  0  0
    1.6587    1.8534    0.0000 C   0  0  0  0  0  0  0  0  0  0  0  0
    1.2462    1.1389    0.0000 C   0  0  0  0  0  0  0  0  0  0  0  0
    1.6587    0.4245    0.0000 C   0  0  0  0  0  0  0  0  0  0  0  0
    1.2462   -0.2900    0.0000 C   0  0  0  0  0  0  0  0  0  0  0  0
    0.4212   -0.2900    0.0000 C   0  0  0  0  0  0  0  0  0  0  0  0
    0.0087    0.4245    0.0000 C   0  0  0  0  0  0  0  0  0  0  0  0
    0.4212    1.1389    0.0000 C   0  0  0  0  0  0  0  0  0  0  0  0
    0.3924   -1.1145    0.0000 C   0  0  0  0  0  0  0  0  0  0  0  0
   -0.2784   -0.7272    0.0000 C   0  0  0  0  0  0  0  0  0  0  0  0
   -0.2496   -1.5517    0.0000 O   0  0  0  0  0  0  0  0  0  0  0  0
   -1.0068   -0.3399    0.0000 O   0  0  0  0  0  0  0  0  0  0  0  0
    0.8337    1.8534    0.0000 C   0  0  0  0  0  0  0  0  0  0  0  0
    3.3087    1.8534    0.0000 C   0  0  0  0  0  0  0  0  0  0  0  0
    3.8075    1.9594    0.0000 C   0  0  0  0  0  0  0  0  0  0  0  0
    6.0530    1.9514    0.0000 C   0  0  0  0  0  0  0  0  0  0  0  0
  1  2  1  0
  2  3  1  0
  3  4  1  0
  4  5  1  0
  5  6  1  0
  6  7  1  0
  7  8  1  0
  3  8  1  0
  8  9  1  0
  9 10  1  0
 10 11  1  0
  2 11  1  0
 11 12  1  0
  8 13  1  0
  7 14  1  0
 14 15  2  0
 14 16  1  0
 16 17  2  0
 17 18  1  0
  6 18  1  0
 18 19  1  0
 19 20  1  0
 20 21  1  0
 21 22  1  0
 17 22  1  0
 22 23  1  0
 23 24  1  0
 24 25  1  0
 25 26  1  0
 21 26  1  0
 24 27  1  0
 24 28  1  0
 28 29  1  0
 28 30  2  0
 21 31  1  0
 18 32  1  0
  6 33  1  0
  2 34  1  0
M  END
>  <name>  (295) 
enoxolone

>  <logBB>  (295) 
-1.4

>  <logBB_class>  (295) 
0

>  <HAC>  (295) 
34

$$$$
MolID_67
     RDKit          2D

 35 37  0  0  0  0  0  0  0  0999 V2000
    1.5966   -7.0674    0.0000 C   0  0  0  0  0  0  0  0  0  0  0  0
    1.1841   -7.7818    0.0000 C   0  0  0  0  0  0  0  0  0  0  0  0
    1.5966   -8.4963    0.0000 C   0  0  0  0  0  0  0  0  0  0  0  0
    0.3591   -7.7818    0.0000 C   0  0  0  0  0  0  0  0  0  0  0  0
   -0.0534   -7.0674    0.0000 N   0  0  0  0  0  0  0  0  0  0  0  0
    0.3591   -6.3529    0.0000 C   0  0  0  0  0  0  0  0  0  0  0  0
   -0.0534   -5.6384    0.0000 C   0  0  0  0  0  0  0  0  0  0  0  0
    0.3591   -4.9239    0.0000 C   0  0  0  0  0  0  0  0  0  0  0  0
   -0.0534   -4.2095    0.0000 C   0  0  0  0  0  0  0  0  0  0  0  0
   -0.8784   -4.2095    0.0000 C   0  0  0  0  0  0  0  0  0  0  0  0
   -1.2909   -4.9239    0.0000 C   0  0  0  0  0  0  0  0  0  0  0  0
   -2.1159   -4.9239    0.0000 C   0  0  0  0  0  0  0  0  0  0  0  0
   -2.5284   -4.2095    0.0000 C   0  0  0  0  0  0  0  0  0  0  0  0
   -2.1159   -3.4950    0.0000 C   0  0  0  0  0  0  0  0  0  0  0  0
   -1.2909   -3.4950    0.0000 C   0  0  0  0  0  0  0  0  0  0  0  0
    1.1841   -4.9239    0.0000 N   0  0  0  0  0  0  0  0  0  0  0  0
    1.5966   -4.2095    0.0000 C   0  0  0  0  0  0  0  0  0  0  0  0
    1.1841   -3.4950    0.0000 O   0  0  0  0  0  0  0  0  0  0  0  0
    2.4216   -4.2095    0.0000 O   0  0  0  0  0  0  0  0  0  0  0  0
    2.8341   -3.4950    0.0000 C   0  0  0  0  0  0  0  0  0  0  0  0
    2.4986   -2.7413    0.0000 C   0  0  0  0  0  0  0  0  0  0  0  0
    3.1116   -2.1893    0.0000 C   0  0  0  0  0  0  0  0  0  0  0  0
    3.8261   -2.6018    0.0000 O   0  0  0  0  0  0  0  0  0  0  0  0
    3.6546   -3.4088    0.0000 C   0  0  0  0  0  0  0  0  0  0  0  0
   -0.8784   -5.6384    0.0000 O   0  0  0  0  0  0  0  0  0  0  0  0
   -0.8784   -7.0674    0.0000 S   0  0  0  0  0  0  0  0  0  0  0  0
   -1.7034   -7.0674    0.0000 O   0  0  0  0  0  0  0  0  0  0  0  0
   -0.8784   -6.2424    0.0000 O   0  0  0  0  0  0  0  0  0  0  0  0
   -0.8784   -7.8924    0.0000 C   0  0  0  0  0  0  0  0  0  0  0  0
   -0.1639   -8.3049    0.0000 C   0  0  0  0  0  0  0  0  0  0  0  0
   -0.1639   -9.1299    0.0000 C   0  0  0  0  0  0  0  0  0  0  0  0
   -0.8784   -9.5424    0.0000 C   0  0  0  0  0  0  0  0  0  0  0  0
   -1.5929   -9.1299    0.0000 C   0  0  0  0  0  0  0  0  0  0  0  0
   -1.5929   -8.3049    0.0000 C   0  0  0  0  0  0  0  0  0  0  0  0
   -0.8784  -10.3674    0.0000 N   0  0  0  0  0  0  0  0  0  0  0  0
  1  2  1  0
  2  3  1  0
  2  4  1  0
  4  5  1  0
  5  6  1  0
  6  7  1  0
  7  8  1  0
  8  9  1  0
  9 10  1  0
 10 11  2  0
 11 12  1  0
 12 13  2  0
 13 14  1  0
 14 15  2  0
 10 15  1  0
  8 16  1  0
 16 17  1  0
 17 18  2  0
 17 19  1  0
 19 20  1  0
 20 21  1  0
 21 22  1  0
 22 23  1  0
 23 24  1  0
 20 24  1  0
  7 25  1  0
  5 26  1  0
 26 27  2  0
 26 28  2  0
 26 29  1  0
 29 30  2  0
 30 31  1  0
 31 32  2  0
 32 33  1  0
 33 34  2  0
 29 34  1  0
 32 35  1  0
M  END
>  <name>  (296) 
amprenavir

>  <logBB>  (296) 
-0.56

>  <logBB_class>  (296) 
0

>  <HAC>  (296) 
35

$$$$
MolID_100
     RDKit          2D

 36 39  0  0  0  0  0  0  0  0999 V2000
    3.6299   -0.7387    0.0000 C   0  0  0  0  0  0  0  0  0  0  0  0
    4.2430   -0.1867    0.0000 N   0  0  0  0  0  0  0  0  0  0  0  0
    4.1568    0.6338    0.0000 C   0  0  0  0  0  0  0  0  0  0  0  0
    4.9105    0.9694    0.0000 N   0  0  0  0  0  0  0  0  0  0  0  0
    5.4625    0.3563    0.0000 N   0  0  0  0  0  0  0  0  0  0  0  0
    5.0500   -0.3582    0.0000 N   0  0  0  0  0  0  0  0  0  0  0  0
    3.4423    1.0463    0.0000 S   0  0  0  0  0  0  0  0  0  0  0  0
    2.7278    0.6338    0.0000 C   0  0  0  0  0  0  0  0  0  0  0  0
    2.0134    1.0463    0.0000 C   0  0  0  0  0  0  0  0  0  0  0  0
    1.2989    0.6338    0.0000 C   0  0  0  0  0  0  0  0  0  0  0  0
    0.5844    1.0463    0.0000 N   0  0  0  0  0  0  0  0  0  0  0  0
    0.5844    1.8713    0.0000 C   0  0  0  0  0  0  0  0  0  0  0  0
   -0.2406    1.8713    0.0000 C   0  0  0  0  0  0  0  0  0  0  0  0
   -0.2406    1.0463    0.0000 C   0  0  0  0  0  0  0  0  0  0  0  0
   -0.8239    0.4629    0.0000 O   0  0  0  0  0  0  0  0  0  0  0  0
   -0.4332    2.6735    0.0000 N   0  0  0  0  0  0  0  0  0  0  0  0
   -1.2242    2.9078    0.0000 C   0  0  0  0  0  0  0  0  0  0  0  0
   -1.8226    2.3399    0.0000 O   0  0  0  0  0  0  0  0  0  0  0  0
   -1.4168    3.7100    0.0000 C   0  0  0  0  0  0  0  0  0  0  0  0
   -2.1202    4.1411    0.0000 S   0  0  0  0  0  0  0  0  0  0  0  0
   -1.6891    4.8445    0.0000 C   0  0  0  0  0  0  0  0  0  0  0  0
   -1.8817    5.6467    0.0000 C   0  0  0  0  0  0  0  0  0  0  0  0
   -2.6728    5.8810    0.0000 C   0  0  0  0  0  0  0  0  0  0  0  0
   -3.2712    5.3131    0.0000 O   0  0  0  0  0  0  0  0  0  0  0  0
   -2.8654    6.6832    0.0000 N   0  0  0  0  0  0  0  0  0  0  0  0
   -1.2833    6.2146    0.0000 C   0  0  0  0  0  0  0  0  0  0  0  0
   -1.4759    7.0168    0.0000 O   0  0  0  0  0  0  0  0  0  0  0  0
   -0.4923    5.9803    0.0000 O   0  0  0  0  0  0  0  0  0  0  0  0
   -0.9857    4.4135    0.0000 S   0  0  0  0  0  0  0  0  0  0  0  0
   -1.0428    2.0639    0.0000 O   0  0  0  0  0  0  0  0  0  0  0  0
   -1.6107    1.4655    0.0000 C   0  0  0  0  0  0  0  0  0  0  0  0
    1.2989    2.2838    0.0000 S   0  0  0  0  0  0  0  0  0  0  0  0
    2.0134    1.8713    0.0000 C   0  0  0  0  0  0  0  0  0  0  0  0
    1.2989   -0.1912    0.0000 C   0  0  0  0  0  0  0  0  0  0  0  0
    0.5844   -0.6037    0.0000 O   0  0  0  0  0  0  0  0  0  0  0  0
    2.0134   -0.6037    0.0000 O   0  0  0  0  0  0  0  0  0  0  0  0
  1  2  1  0
  2  3  1  0
  3  4  2  0
  4  5  1  0
  5  6  2  0
  2  6  1  0
  3  7  1  0
  7  8  1  0
  8  9  1  0
  9 10  2  0
 10 11  1  0
 11 12  1  0
 12 13  1  0
 13 14  1  0
 11 14  1  0
 14 15  2  0
 13 16  1  0
 16 17  1  0
 17 18  1  0
 17 19  2  0
 19 20  1  0
 20 21  1  0
 21 22  2  0
 22 23  1  0
 23 24  2  0
 23 25  1  0
 22 26  1  0
 26 27  2  0
 26 28  1  0
 21 29  1  0
 19 29  1  0
 13 30  1  0
 30 31  1  0
 12 32  1  0
 32 33  1  0
  9 33  1  0
 10 34  1  0
 34 35  2  0
 34 36  1  0
M  END
>  <name>  (297) 
cefotetan

>  <logBB>  (297) 
-1.89

>  <logBB_class>  (297) 
0

>  <HAC>  (297) 
36

$$$$
MolID_149
     RDKit          2D

 39 43  0  0  1  0  0  0  0  0999 V2000
    7.7368    2.1099    0.0000 C   0  0  0  0  0  0  0  0  0  0  0  0
    7.0224    2.5224    0.0000 C   0  0  0  0  0  0  0  0  0  0  0  0
    7.0224    3.3474    0.0000 C   0  0  0  0  0  0  0  0  0  0  0  0
    6.3079    3.7599    0.0000 C   0  0  0  0  0  0  0  0  0  0  0  0
    5.5934    3.3474    0.0000 C   0  0  0  0  0  0  0  0  0  0  0  0
    5.5934    2.5224    0.0000 C   0  0  0  0  0  0  0  0  0  0  0  0
    6.3079    2.1099    0.0000 O   0  0  0  0  0  0  0  0  0  0  0  0
    4.8790    2.1099    0.0000 O   0  0  0  0  0  0  0  0  0  0  0  0
    4.8790    1.2849    0.0000 C   0  0  0  0  0  0  0  0  0  0  0  0
    5.5934    0.8724    0.0000 C   0  0  0  0  0  0  0  0  0  0  0  0
    5.5934    0.0474    0.0000 C   0  0  0  0  0  0  0  0  0  0  0  0
    4.8790   -0.3651    0.0000 C   0  0  0  0  0  0  0  0  0  0  0  0
    4.1645    0.0474    0.0000 C   0  0  0  0  0  0  0  0  0  0  0  0
    4.1645    0.8724    0.0000 C   0  0  0  0  0  0  0  0  0  0  0  0
    3.4500    1.2849    0.0000 C   0  0  0  0  0  0  0  0  0  0  0  0
    2.7355    0.8724    0.0000 C   0  0  0  0  0  0  0  0  0  0  0  0
    2.7355    0.0474    0.0000 C   0  0  0  0  0  0  0  0  0  0  0  0
    3.4500   -0.3651    0.0000 C   0  0  0  0  0  0  0  0  0  0  0  0
    3.4500   -1.1901    0.0000 O   0  0  0  0  0  0  0  0  0  0  0  0
    2.0211   -0.3651    0.0000 C   0  0  0  0  0  0  0  0  0  0  0  0
    2.0211   -1.1901    0.0000 O   0  0  0  0  0  0  0  0  0  0  0  0
    1.3066    0.0474    0.0000 C   0  0  0  0  0  0  0  0  0  0  0  0
    0.5921   -0.3651    0.0000 C   0  0  0  0  0  0  0  0  0  0  0  0
   -0.1223    0.0474    0.0000 C   0  0  0  0  0  0  0  0  0  0  0  0
   -0.1223    0.8724    0.0000 C   0  0  0  0  0  0  0  0  0  0  0  0
    0.5921    1.2849    0.0000 C   0  0  0  0  0  0  0  0  0  0  0  0
    1.3066    0.8724    0.0000 C   0  0  0  0  0  0  0  0  0  0  0  0
    2.0211    1.2849    0.0000 C   0  0  0  0  0  0  0  0  0  0  0  0
    2.0211    2.1099    0.0000 O   0  0  0  0  0  0  0  0  0  0  0  0
    0.5921    2.1099    0.0000 O   0  0  0  0  0  0  0  0  0  0  0  0
    1.3066    2.5224    0.0000 C   0  0  0  0  0  0  0  0  0  0  0  0
    3.4500    2.1099    0.0000 O   0  0  0  0  0  0  0  0  0  0  0  0
    6.4179    0.0186    0.0000 C   0  0  0  0  0  0  0  0  0  0  0  0
    6.8052   -0.7099    0.0000 O   0  0  0  0  0  0  0  0  0  0  0  0
    6.8551    0.7182    0.0000 C   0  0  0  0  0  0  0  0  0  0  0  0
    7.6796    0.6894    0.0000 O   0  0  0  0  0  0  0  0  0  0  0  0
    6.0306   -0.6523    0.0000 O   0  0  0  0  0  0  0  0  0  0  0  0
    6.3079    4.5849    0.0000 N   0  0  0  0  0  0  0  0  0  0  0  0
    7.7368    3.7599    0.0000 O   0  0  0  0  0  0  0  0  0  0  0  0
  2  1  1  6
  3  2  1  0
  3  4  1  0
  4  5  1  0
  6  5  1  0
  6  7  1  0
  2  7  1  0
  6  8  1  1
  9  8  1  1
  9 10  1  0
 11 10  1  0
 11 12  1  0
 12 13  1  0
 13 14  2  0
  9 14  1  0
 14 15  1  0
 15 16  2  0
 16 17  1  0
 17 18  2  0
 13 18  1  0
 18 19  1  0
 17 20  1  0
 20 21  2  0
 20 22  1  0
 22 23  2  0
 23 24  1  0
 24 25  2  0
 25 26  1  0
 26 27  2  0
 22 27  1  0
 27 28  1  0
 16 28  1  0
 28 29  2  0
 26 30  1  0
 30 31  1  0
 15 32  1  0
 11 33  1  0
 33 34  2  0
 33 35  1  0
 35 36  1  0
 11 37  1  1
  4 38  1  6
  3 39  1  6
M  END
>  <name>  (298) 
doxorubicin

>  <logBB>  (298) 
-0.83

>  <logBB_class>  (298) 
0

>  <HAC>  (298) 
39

$$$$