
  Mrv1808 07152009202D          

 14 15  0  0  0  0            999 V2000
    0.0000   -2.4717    0.0000 O   0  0  0  0  0  0  0  0  0  0  0  0
    0.7115   -2.0604    0.0000 C   0  0  0  0  0  0  0  0  0  0  0  0
    1.4267   -2.4717    0.0000 C   0  0  0  0  0  0  0  0  0  0  0  0
    0.7115   -1.2340    0.0000 C   0  0  0  0  0  0  0  0  0  0  0  0
    2.1382   -2.0604    0.0000 C   0  0  0  0  0  0  0  0  0  0  0  0
    1.4267   -3.2943    0.0000 C   0  0  0  0  0  0  0  0  0  0  0  0
    1.4267   -0.8227    0.0000 C   0  0  0  0  0  0  0  0  0  0  0  0
    0.0000   -0.8227    0.0000 Cl  0  0  0  0  0  0  0  0  0  0  0  0
    2.8534   -2.4717    0.0000 C   0  0  0  0  0  0  0  0  0  0  0  0
    2.1382   -1.2340    0.0000 C   0  0  0  0  0  0  0  0  0  0  0  0
    2.1382   -3.7057    0.0000 C   0  0  0  0  0  0  0  0  0  0  0  0
    1.4267    0.0000    0.0000 Cl  0  0  0  0  0  0  0  0  0  0  0  0
    2.8534   -3.2943    0.0000 C   0  0  0  0  0  0  0  0  0  0  0  0
    2.8534   -0.8227    0.0000 O   0  0  0  0  0  0  0  0  0  0  0  0
  1  2  2  0  0  0  0
  2  3  1  0  0  0  0
  2  4  1  0  0  0  0
  3  5  2  0  0  0  0
  3  6  1  0  0  0  0
  7  4  2  0  0  0  0
  4  8  1  0  0  0  0
  5  9  1  0  0  0  0
  5 10  1  0  0  0  0
 11  6  2  0  0  0  0
 10  7  1  0  0  0  0
  7 12  1  0  0  0  0
  9 13  2  0  0  0  0
 10 14  2  0  0  0  0
 13 11  1  0  0  0  0
M  END
>  <Name>
1,4-Naphthalenedione, 2,3-dichloro-

>  <IGC50>
6.36

>  <CAS>
117-80-6

>  <SET>
ws

>  <Species>
Tetrahymena pyriformis

>  <Test duration>
48h

$$$$

  Mrv1808 07152009202D          

 12 12  0  0  0  0            999 V2000
    5.0613    1.3385    0.0000 C   0  0  0  0  0  0  0  0  0  0  0  0
    4.3501    1.7150    0.0000 N   0  0  0  0  0  0  0  0  0  0  0  0
    5.7723    0.9203    0.0000 S   0  0  0  0  0  0  0  0  0  0  0  0
    3.6391    1.2549    0.0000 C   0  0  0  0  0  0  0  0  0  0  0  0
    2.8862    1.6731    0.0000 C   0  0  0  0  0  0  0  0  0  0  0  0
    3.6391    0.4601    0.0000 C   0  0  0  0  0  0  0  0  0  0  0  0
    2.1751    1.2549    0.0000 C   0  0  0  0  0  0  0  0  0  0  0  0
    2.8862    0.0418    0.0000 C   0  0  0  0  0  0  0  0  0  0  0  0
    2.1751    0.4183    0.0000 C   0  0  0  0  0  0  0  0  0  0  0  0
    1.4222    0.0000    0.0000 N   0  0  0  0  0  0  0  0  0  0  0  0
    0.7111    0.4183    0.0000 C   0  0  0  0  0  0  0  0  0  0  0  0
    0.0000    0.8366    0.0000 S   0  0  0  0  0  0  0  0  0  0  0  0
  1  2  2  0  0  0  0
  1  3  2  0  0  0  0
  2  4  1  0  0  0  0
  5  4  2  0  0  0  0
  4  6  1  0  0  0  0
  7  5  1  0  0  0  0
  6  8  2  0  0  0  0
  9  7  2  0  0  0  0
  8  9  1  0  0  0  0
  9 10  1  0  0  0  0
 10 11  2  0  0  0  0
 11 12  2  0  0  0  0
M  END
>  <Name>
Isothiocyanic acid, 1,4-phenylenedi-

>  <IGC50>
6.347

>  <CAS>
4044-65-9

>  <SET>
ws

>  <Species>
Tetrahymena pyriformis

>  <Test duration>
48h

$$$$

  Mrv1808 07152009202D          

 13 14  0  0  0  0            999 V2000
    1.4219   -2.0686    0.0000 C   0  0  0  0  0  0  0  0  0  0  0  0
    1.4219   -1.2405    0.0000 C   0  0  0  0  0  0  0  0  0  0  0  0
    2.1379   -2.4744    0.0000 C   0  0  0  0  0  0  0  0  0  0  0  0
    0.7060   -2.4744    0.0000 C   0  0  0  0  0  0  0  0  0  0  0  0
    2.1379   -0.8248    0.0000 C   0  0  0  0  0  0  0  0  0  0  0  0
    0.7060   -0.8248    0.0000 C   0  0  0  0  0  0  0  0  0  0  0  0
    2.8505   -2.0686    0.0000 C   0  0  0  0  0  0  0  0  0  0  0  0
    0.0000   -2.0686    0.0000 C   0  0  0  0  0  0  0  0  0  0  0  0
    0.7060   -3.2992    0.0000 O   0  0  0  0  0  0  0  0  0  0  0  0
    2.8505   -1.2405    0.0000 C   0  0  0  0  0  0  0  0  0  0  0  0
    2.1379    0.0000    0.0000 O   0  0  0  0  0  0  0  0  0  0  0  0
    0.0000   -1.2405    0.0000 C   0  0  0  0  0  0  0  0  0  0  0  0
    0.7060    0.0000    0.0000 O   0  0  0  0  0  0  0  0  0  0  0  0
  1  2  2  0  0  0  0
  1  3  1  0  0  0  0
  1  4  1  0  0  0  0
  2  5  1  0  0  0  0
  2  6  1  0  0  0  0
  3  7  2  0  0  0  0
  4  8  1  0  0  0  0
  4  9  2  0  0  0  0
  5 10  2  0  0  0  0
  5 11  1  0  0  0  0
  6 12  1  0  0  0  0
  6 13  2  0  0  0  0
 10  7  1  0  0  0  0
  8 12  2  0  0  0  0
M  END
>  <Name>
1,4-Naphthoquinone, 5-hydroxy- (8CI)

>  <IGC50>
6.33

>  <CAS>
481-39-0

>  <SET>
ws

>  <Species>
Tetrahymena pyriformis

>  <Test duration>
48h

$$$$

  Mrv1808 07152009203D          

 12 13  0  0  0  0            999 V2000
    4.8109   -0.9956    0.1014 O   0  0  0  0  0  0  0  0  0  0  0  0
    4.1692   -2.0335    0.0710 C   0  0  0  0  0  0  0  0  0  0  0  0
    2.6959   -2.0685    0.0343 C   0  0  0  0  0  0  0  0  0  0  0  0
    4.9219   -3.3359    0.0709 C   0  0  0  0  0  0  0  0  0  0  0  0
    2.0481   -3.3101    0.0007 C   0  0  0  0  0  0  0  0  0  0  0  0
    1.9664   -0.8760    0.0338 C   0  0  0  0  0  0  0  0  0  0  0  0
    6.1427   -3.3140    0.1016 O   0  0  0  0  0  0  0  0  0  0  0  0
    4.1472   -4.5902    0.0346 C   0  0  0  0  0  0  0  0  0  0  0  0
    2.8110   -4.5606    0.0019 C   0  0  0  0  0  0  0  0  0  0  0  0
    0.6486   -3.3403   -0.0336 C   0  0  0  0  0  0  0  0  0  0  0  0
    0.5737   -0.9222   -0.0004 C   0  0  0  0  0  0  0  0  0  0  0  0
   -0.0841   -2.1511   -0.0341 C   0  0  0  0  0  0  0  0  0  0  0  0
  1  2  2  0  0  0  0
  3  2  1  0  0  0  0
  2  4  1  0  0  0  0
  3  5  1  0  0  0  0
  3  6  2  0  0  0  0
  7  4  2  0  0  0  0
  4  8  1  0  0  0  0
  5  9  1  0  0  0  0
  5 10  2  0  0  0  0
  6 11  1  0  0  0  0
  9  8  2  0  0  0  0
 10 12  1  0  0  0  0
 11 12  2  0  0  0  0
M  END
>  <Name>
1,2-Naphthalenedione

>  <IGC50>
6.2

>  <CAS>
524-42-5

>  <SET>
ws

>  <Species>
Tetrahymena pyriformis

>  <Test duration>
48h

$$$$

  Mrv1808 07152009202D          

 14 15  0  0  0  0            999 V2000
    1.4582    0.3860    0.0000 C   0  0  0  0  0  0  0  0  0  0  0  0
    1.4582    1.2866    0.0000 C   0  0  0  0  0  0  0  0  0  0  0  0
    0.6862    0.0000    0.0000 C   0  0  0  0  0  0  0  0  0  0  0  0
    2.1444    0.0000    0.0000 C   0  0  0  0  0  0  0  0  0  0  0  0
    0.6862    1.6726    0.0000 C   0  0  0  0  0  0  0  0  0  0  0  0
    2.1444    1.6726    0.0000 C   0  0  0  0  0  0  0  0  0  0  0  0
    0.0000    0.3860    0.0000 C   0  0  0  0  0  0  0  0  0  0  0  0
    2.8735    0.3860    0.0000 C   0  0  0  0  0  0  0  0  0  0  0  0
    0.0000    1.2866    0.0000 C   0  0  0  0  0  0  0  0  0  0  0  0
    2.8735    1.2866    0.0000 C   0  0  0  0  0  0  0  0  0  0  0  0
    2.1444    2.4875    0.0000 C   0  0  0  0  0  0  0  0  0  0  0  0
    2.8735    2.9164    0.0000 N   0  0  0  0  0  0  0  0  0  0  0  0
    3.7313    3.4739    0.0000 C   0  0  0  0  0  0  0  0  0  0  0  0
    4.4603    3.9457    0.0000 S   0  0  0  0  0  0  0  0  0  0  0  0
  1  2  1  0  0  0  0
  1  3  2  0  0  0  0
  4  1  1  0  0  0  0
  5  2  2  0  0  0  0
  2  6  1  0  0  0  0
  3  7  1  0  0  0  0
  8  4  2  0  0  0  0
  9  5  1  0  0  0  0
  6 10  2  0  0  0  0
  6 11  1  0  0  0  0
  7  9  2  0  0  0  0
 10  8  1  0  0  0  0
 11 12  1  0  0  0  0
 12 13  2  0  0  0  0
 13 14  2  0  0  0  0
M  END
>  <Name>
1-Naphthalenemethyl isothiocyanate

>  <IGC50>
6.056

>  <CAS>
17112-82-2

>  <SET>
ws

>  <Species>
Tetrahymena pyriformis

>  <Test duration>
48h

$$$$

  Mrv1808 07152009202D          

 16 17  0  0  0  0            999 V2000
    0.0000    0.4125    0.0000 C   0  0  0  0  0  0  0  0  0  0  0  0
    0.0000    1.2375    0.0000 C   0  0  0  0  0  0  0  0  0  0  0  0
    0.7425    0.0000    0.0000 C   0  0  0  0  0  0  0  0  0  0  0  0
    0.7425    1.6500    0.0000 C   0  0  0  0  0  0  0  0  0  0  0  0
    1.4437    0.4125    0.0000 C   0  0  0  0  0  0  0  0  0  0  0  0
    1.4437    1.2375    0.0000 C   0  0  0  0  0  0  0  0  0  0  0  0
    2.1862    1.6500    0.0000 C   0  0  0  0  0  0  0  0  0  0  0  0
    2.8462    1.2375    0.0000 C   0  0  0  0  0  0  0  0  0  0  0  0
    2.1862    2.4337    0.0000 N   0  0  0  0  0  0  0  0  0  0  0  0
    2.8462    0.4125    0.0000 C   0  0  0  0  0  0  0  0  0  0  0  0
    3.5887    1.6500    0.0000 C   0  0  0  0  0  0  0  0  0  0  0  0
    2.8462    2.8462    0.0000 C   0  0  0  0  0  0  0  0  0  0  0  0
    3.5887    0.0000    0.0000 C   0  0  0  0  0  0  0  0  0  0  0  0
    4.2899    1.2375    0.0000 C   0  0  0  0  0  0  0  0  0  0  0  0
    3.5062    3.2174    0.0000 S   0  0  0  0  0  0  0  0  0  0  0  0
    4.2899    0.4125    0.0000 C   0  0  0  0  0  0  0  0  0  0  0  0
  1  2  2  0  0  0  0
  3  1  1  0  0  0  0
  2  4  1  0  0  0  0
  5  3  2  0  0  0  0
  4  6  2  0  0  0  0
  6  5  1  0  0  0  0
  6  7  1  0  0  0  0
  7  8  1  0  0  0  0
  7  9  1  0  0  0  0
 10  8  2  0  0  0  0
  8 11  1  0  0  0  0
  9 12  2  0  0  0  0
 13 10  1  0  0  0  0
 11 14  2  0  0  0  0
 12 15  2  0  0  0  0
 16 13  2  0  0  0  0
 14 16  1  0  0  0  0
M  END
>  <Name>
Isothiocyanicacid, diphenylmethyl ester (6CI,7CI,8CI)

>  <IGC50>
6.051

>  <CAS>
3550-21-8

>  <SET>
ws

>  <Species>
Tetrahymena pyriformis

>  <Test duration>
48h

$$$$

  Mrv1808 07152009202D          

 21 22  0  0  0  0            999 V2000
    1.4257   -3.2859    0.0000 O   0  0  0  0  0  0  0  0  0  0  0  0
    1.4257   -2.4660    0.0000 C   0  0  0  0  0  0  0  0  0  0  0  0
    0.7098   -2.0560    0.0000 C   0  0  0  0  0  0  0  0  0  0  0  0
    2.1355   -2.0560    0.0000 C   0  0  0  0  0  0  0  0  0  0  0  0
    0.7098   -1.2299    0.0000 C   0  0  0  0  0  0  0  0  0  0  0  0
    0.0000   -2.4660    0.0000 Cl  0  0  0  0  0  0  0  0  0  0  0  0
    2.1355   -1.2299    0.0000 C   0  0  0  0  0  0  0  0  0  0  0  0
    3.0595   -2.5884    0.0000 C   0  0  0  0  0  0  0  0  0  0  0  0
    1.4257   -0.8200    0.0000 C   0  0  0  0  0  0  0  0  0  0  0  0
    2.5455   -0.9851    0.0000 Cl  0  0  0  0  0  0  0  0  0  0  0  0
    3.9835   -2.0560    0.0000 C   0  0  0  0  0  0  0  0  0  0  0  0
    1.4257    0.0000    0.0000 Cl  0  0  0  0  0  0  0  0  0  0  0  0
    3.9835   -1.2299    0.0000 C   0  0  0  0  0  0  0  0  0  0  0  0
    4.6932   -2.4660    0.0000 C   0  0  0  0  0  0  0  0  0  0  0  0
    4.6932   -0.8200    0.0000 C   0  0  0  0  0  0  0  0  0  0  0  0
    3.3838   -0.8628    0.0000 O   0  0  0  0  0  0  0  0  0  0  0  0
    5.4092   -2.0560    0.0000 C   0  0  0  0  0  0  0  0  0  0  0  0
    4.6932   -3.2859    0.0000 Cl  0  0  0  0  0  0  0  0  0  0  0  0
    5.4092   -1.2299    0.0000 C   0  0  0  0  0  0  0  0  0  0  0  0
    4.6932    0.0000    0.0000 Cl  0  0  0  0  0  0  0  0  0  0  0  0
    6.1189   -2.4660    0.0000 Cl  0  0  0  0  0  0  0  0  0  0  0  0
  1  2  1  0  0  0  0
  2  3  2  0  0  0  0
  2  4  1  0  0  0  0
  3  5  1  0  0  0  0
  3  6  1  0  0  0  0
  7  4  2  0  0  0  0
  4  8  1  0  0  0  0
  5  9  2  0  0  0  0
  9  7  1  0  0  0  0
  7 10  1  0  0  0  0
  8 11  1  0  0  0  0
  9 12  1  0  0  0  0
 11 13  2  0  0  0  0
 11 14  1  0  0  0  0
 13 15  1  0  0  0  0
 13 16  1  0  0  0  0
 17 14  2  0  0  0  0
 14 18  1  0  0  0  0
 15 19  2  0  0  0  0
 15 20  1  0  0  0  0
 19 17  1  0  0  0  0
 17 21  1  0  0  0  0
M  END
>  <Name>
Phenol, 2,2'-methylenebis(3,4,6-trichloro-

>  <IGC50>
6.04

>  <CAS>
70-30-4

>  <SET>
ws

>  <Species>
Tetrahymena pyriformis

>  <Test duration>
48h

$$$$

  Mrv1808 07152009203D          

 14 15  0  0  0  0            999 V2000
   -5.3597   -0.0418    0.0578 Br  0  0  0  0  0  0  0  0  0  0  0  0
   -3.5817    0.7390   -0.0211 C   0  0  0  0  0  0  0  0  0  0  0  0
   -2.5033   -0.3464   -0.0147 C   0  0  0  0  0  0  0  0  0  0  0  0
   -2.8154   -1.5539   -0.0276 O   0  0  0  0  0  0  0  0  0  0  0  0
   -1.1031    0.0464   -0.0089 C   0  0  0  0  0  0  0  0  0  0  0  0
   -0.1053   -0.9287   -0.0039 C   0  0  0  0  0  0  0  0  0  0  0  0
   -0.7597    1.3951   -0.0093 C   0  0  0  0  0  0  0  0  0  0  0  0
    1.2514   -0.5654    0.0010 C   0  0  0  0  0  0  0  0  0  0  0  0
    0.5830    1.7739   -0.0045 C   0  0  0  0  0  0  0  0  0  0  0  0
    1.6006    0.8061    0.0006 C   0  0  0  0  0  0  0  0  0  0  0  0
    2.2689   -1.5333    0.0056 C   0  0  0  0  0  0  0  0  0  0  0  0
    2.9572    1.1692    0.0051 C   0  0  0  0  0  0  0  0  0  0  0  0
    3.6117   -1.1544    0.0100 C   0  0  0  0  0  0  0  0  0  0  0  0
    3.9553    0.1942    0.0098 C   0  0  0  0  0  0  0  0  0  0  0  0
  1  2  1  0  0  0  0
  3  2  1  0  0  0  0
  4  3  2  0  0  0  0
  5  3  1  0  0  0  0
  5  6  2  0  0  0  0
  5  7  1  0  0  0  0
  8  6  1  0  0  0  0
  9  7  2  0  0  0  0
  8 10  1  0  0  0  0
  8 11  2  0  0  0  0
 10  9  1  0  0  0  0
 10 12  2  0  0  0  0
 11 13  1  0  0  0  0
 12 14  1  0  0  0  0
 13 14  2  0  0  0  0
M  END
>  <Name>
2-bromo-1-naphthalen-2-ylethanone

>  <IGC50>
5.959

>  <CAS>
613-54-7

>  <SET>
ws

>  <Species>
Tetrahymena pyriformis

>  <Test duration>
48h

$$$$

  Mrv1808 07152009203D          

 14 15  0  0  0  0            999 V2000
   -4.0534    0.4403   -1.9226 O   0  0  0  0  0  0  0  0  0  0  0  0
   -3.0936   -0.3528   -1.3678 C   0  0  0  0  0  0  0  0  0  0  0  0
   -3.2400   -1.7382   -1.2361 C   0  0  0  0  0  0  0  0  0  0  0  0
   -1.9267    0.2688   -0.9220 C   0  0  0  0  0  0  0  0  0  0  0  0
   -2.2179   -2.4963   -0.6584 C   0  0  0  0  0  0  0  0  0  0  0  0
   -4.4776   -2.3881   -1.7106 C   0  0  0  0  0  0  0  0  0  0  0  0
   -0.9071   -0.4874   -0.3459 C   0  0  0  0  0  0  0  0  0  0  0  0
   -1.0492   -1.8691   -0.2126 C   0  0  0  0  0  0  0  0  0  0  0  0
   -2.3603   -3.9584   -0.5135 C   0  0  0  0  0  0  0  0  0  0  0  0
   -5.4022   -1.7686   -2.2221 O   0  0  0  0  0  0  0  0  0  0  0  0
   -4.5866   -3.8527   -1.5509 C   0  0  0  0  0  0  0  0  0  0  0  0
   -0.0165   -2.5525    0.3573 O   0  0  0  0  0  0  0  0  0  0  0  0
   -1.4943   -4.6672   -0.0156 O   0  0  0  0  0  0  0  0  0  0  0  0
   -3.6112   -4.5762   -0.9994 C   0  0  0  0  0  0  0  0  0  0  0  0
  1  2  1  0  0  0  0
  3  2  2  0  0  0  0
  2  4  1  0  0  0  0
  3  5  1  0  0  0  0
  3  6  1  0  0  0  0
  4  7  2  0  0  0  0
  5  8  2  0  0  0  0
  5  9  1  0  0  0  0
 10  6  2  0  0  0  0
  6 11  1  0  0  0  0
  8  7  1  0  0  0  0
 12  8  1  0  0  0  0
 13  9  2  0  0  0  0
  9 14  1  0  0  0  0
 11 14  2  0  0  0  0
M  END
>  <Name>
1,4-Naphthalenedione, 5,8-dihydroxy- (9CI)

>  <IGC50>
5.83

>  <CAS>
475-38-7

>  <SET>
ws

>  <Species>
Tetrahymena pyriformis

>  <Test duration>
48h

$$$$

  Mrv1808 07152009203D          

 10 10  0  0  0  0            999 V2000
    0.9096   -0.2975    6.7767 Br  0  0  0  0  0  0  0  0  0  0  0  0
    0.6534   -0.2846    4.8502 C   0  0  0  0  0  0  0  0  0  0  0  0
    1.8333   -0.9446    4.1336 C   0  0  0  0  0  0  0  0  0  0  0  0
    2.7641   -1.4614    4.7833 O   0  0  0  0  0  0  0  0  0  0  0  0
    1.8509   -0.9767    2.6799 C   0  0  0  0  0  0  0  0  0  0  0  0
    0.8008   -0.4105    1.9570 C   0  0  0  0  0  0  0  0  0  0  0  0
    2.9180   -1.5734    2.0082 C   0  0  0  0  0  0  0  0  0  0  0  0
    0.8176   -0.4410    0.5626 C   0  0  0  0  0  0  0  0  0  0  0  0
    2.9348   -1.6038    0.6137 C   0  0  0  0  0  0  0  0  0  0  0  0
    1.8846   -1.0376   -0.1090 C   0  0  0  0  0  0  0  0  0  0  0  0
  1  2  1  0  0  0  0
  3  2  1  0  0  0  0
  4  3  2  0  0  0  0
  5  3  1  0  0  0  0
  5  6  2  0  0  0  0
  5  7  1  0  0  0  0
  6  8  1  0  0  0  0
  7  9  2  0  0  0  0
  8 10  2  0  0  0  0
  9 10  1  0  0  0  0
M  END
>  <Name>
Acetophenone, 2-bromo- (8CI)

>  <IGC50>
5.824

>  <CAS>
70-11-1

>  <SET>
ws

>  <Species>
Tetrahymena pyriformis

>  <Test duration>
48h

$$$$

  Mrv1808 07152009202D          

 16 16  0  0  0  0            999 V2000
    2.1038    2.4338    0.0000 C   0  0  0  0  0  0  0  0  0  0  0  0
    1.3613    2.0625    0.0000 C   0  0  0  0  0  0  0  0  0  0  0  0
    2.8051    2.0625    0.0000 C   0  0  0  0  0  0  0  0  0  0  0  0
    2.1038    3.2589    0.0000 Cl  0  0  0  0  0  0  0  0  0  0  0  0
    1.3613    1.2375    0.0000 C   0  0  0  0  0  0  0  0  0  0  0  0
    0.6600    2.4338    0.0000 N   0  0  0  0  0  0  0  0  0  0  0  0
    2.8051    1.2375    0.0000 C   0  0  0  0  0  0  0  0  0  0  0  0
    3.5064    2.4338    0.0000 Cl  0  0  0  0  0  0  0  0  0  0  0  0
    2.1038    0.8250    0.0000 C   0  0  0  0  0  0  0  0  0  0  0  0
    0.6600    0.8250    0.0000 Cl  0  0  0  0  0  0  0  0  0  0  0  0
    0.6600    3.2589    0.0000 O   0  0  0  0  0  0  0  0  0  0  0  0
    0.0000    2.0625    0.0000 O   0  0  0  0  0  0  0  0  0  0  0  0
    3.5064    0.8250    0.0000 N   0  0  0  0  0  0  0  0  0  0  0  0
    2.1038    0.0000    0.0000 Cl  0  0  0  0  0  0  0  0  0  0  0  0
    3.5064    0.0000    0.0000 O   0  0  0  0  0  0  0  0  0  0  0  0
    4.2489    0.4125    0.0000 O   0  0  0  0  0  0  0  0  0  0  0  0
  2  1  2  0  0  0  0
  1  3  1  0  0  0  0
  1  4  1  0  0  0  0
  5  2  1  0  0  0  0
  2  6  1  0  0  0  0
  3  7  2  0  0  0  0
  3  8  1  0  0  0  0
  9  5  2  0  0  0  0
  5 10  1  0  0  0  0
  6 11  2  0  0  0  0
  6 12  2  0  0  0  0
  7  9  1  0  0  0  0
  7 13  1  0  0  0  0
  9 14  1  0  0  0  0
 13 15  2  0  0  0  0
 13 16  2  0  0  0  0
M  END
>  <Name>
Benzene, 1,2,4,5-tetrachloro-3,6-dinitro-

>  <IGC50>
5.82

>  <CAS>
20098-38-8

>  <SET>
ws

>  <Species>
Tetrahymena pyriformis

>  <Test duration>
48h

$$$$

  Mrv1808 07152009203D          

 13 13  0  0  0  0            999 V2000
    4.2936    0.1461   -8.1665 S   0  0  0  0  0  0  0  0  0  0  0  0
    3.5471    1.5370   -7.9438 C   0  0  0  0  0  0  0  0  0  0  0  0
    3.0038    2.5744   -7.7963 N   0  0  0  0  0  0  0  0  0  0  0  0
    2.2005    2.6200   -6.6524 C   0  0  0  0  0  0  0  0  0  0  0  0
    2.7402    3.0435   -5.4379 C   0  0  0  0  0  0  0  0  0  0  0  0
    0.8594    2.2432   -6.7261 C   0  0  0  0  0  0  0  0  0  0  0  0
    1.9388    3.0902   -4.2972 C   0  0  0  0  0  0  0  0  0  0  0  0
    0.0580    2.2902   -5.5854 C   0  0  0  0  0  0  0  0  0  0  0  0
    0.6069    2.7132   -4.3840 C   0  0  0  0  0  0  0  0  0  0  0  0
   -0.2597    2.7626   -3.1517 C   0  0  0  0  0  0  0  0  0  0  0  0
   -0.2245    1.4406   -2.3818 C   0  0  0  0  0  0  0  0  0  0  0  0
   -1.1345    1.4900   -1.1546 C   0  0  0  0  0  0  0  0  0  0  0  0
   -1.1355    0.1657   -0.4077 C   0  0  0  0  0  0  0  0  0  0  0  0
  1  2  2  0  0  0  0
  3  2  2  0  0  0  0
  3  4  1  0  0  0  0
  5  4  2  0  0  0  0
  6  4  1  0  0  0  0
  7  5  1  0  0  0  0
  8  6  2  0  0  0  0
  9  7  2  0  0  0  0
  9  8  1  0  0  0  0
 10  9  1  0  0  0  0
 11 10  1  0  0  0  0
 11 12  1  0  0  0  0
 12 13  1  0  0  0  0
M  END
>  <Name>
4-Butylphenyl isothiocyanate

>  <IGC50>
5.77

>  <CAS>
23165-44-8

>  <SET>
ws

>  <Species>
Tetrahymena pyriformis

>  <Test duration>
48h

$$$$

  Mrv1808 07152009202D          

  9  8  0  0  0  0            999 V2000
   -2.8579   -0.2062    0.0000 S   0  0  0  0  0  0  0  0  0  0  0  0
   -2.1434    0.2062    0.0000 C   0  0  0  0  0  0  0  0  0  0  0  0
   -1.4289   -0.2062    0.0000 N   0  0  0  0  0  0  0  0  0  0  0  0
   -0.7145    0.2062    0.0000 C   0  0  0  0  0  0  0  0  0  0  0  0
    0.0000   -0.2062    0.0000 C   0  0  0  0  0  0  0  0  0  0  0  0
    0.7145    0.2062    0.0000 C   0  0  0  0  0  0  0  0  0  0  0  0
    1.4289   -0.2062    0.0000 N   0  0  0  0  0  0  0  0  0  0  0  0
    2.1434    0.2062    0.0000 C   0  0  0  0  0  0  0  0  0  0  0  0
    2.8579   -0.2062    0.0000 S   0  0  0  0  0  0  0  0  0  0  0  0
  1  2  2  0  0  0  0
  2  3  2  0  0  0  0
  3  4  1  0  0  0  0
  4  5  2  0  0  0  0
  5  6  1  0  0  0  0
  6  7  1  0  0  0  0
  7  8  2  0  0  0  0
  8  9  2  0  0  0  0
M  END
>  <Name>
1,3-PROPANE DIISOTHIOCYANATE 95%

>  <IGC50>
5.74

>  <CAS>
109704-32-7

>  <SET>
ws

>  <Species>
Tetrahymena pyriformis

>  <Test duration>
48h

$$$$

  Mrv1808 07152009202D          

 14 14  0  0  0  0            999 V2000
    0.7152    0.0000    0.0000 Cl  0  0  0  0  0  0  0  0  0  0  0  0
    1.4262   -0.4112    0.0000 C   0  0  0  0  0  0  0  0  0  0  0  0
    2.1415    0.0000    0.0000 C   0  0  0  0  0  0  0  0  0  0  0  0
    1.4262   -1.2335    0.0000 C   0  0  0  0  0  0  0  0  0  0  0  0
    2.8567   -0.4112    0.0000 C   0  0  0  0  0  0  0  0  0  0  0  0
    2.1415   -1.6489    0.0000 C   0  0  0  0  0  0  0  0  0  0  0  0
    0.7152   -1.6489    0.0000 N   0  3  0  0  0  0  0  0  0  0  0  0
    3.5677    0.0000    0.0000 Cl  0  0  0  0  0  0  0  0  0  0  0  0
    2.8567   -1.2335    0.0000 C   0  0  0  0  0  0  0  0  0  0  0  0
    0.0000   -1.2335    0.0000 O   0  5  0  0  0  0  0  0  0  0  0  0
    0.7152   -2.4712    0.0000 O   0  0  0  0  0  0  0  0  0  0  0  0
    3.5677   -1.6489    0.0000 N   0  3  0  0  0  0  0  0  0  0  0  0
    4.2830   -1.2335    0.0000 O   0  5  0  0  0  0  0  0  0  0  0  0
    3.5677   -2.4712    0.0000 O   0  0  0  0  0  0  0  0  0  0  0  0
  1  2  1  0  0  0  0
  2  3  2  0  0  0  0
  2  4  1  0  0  0  0
  3  5  1  0  0  0  0
  6  4  2  0  0  0  0
  4  7  1  0  0  0  0
  5  8  1  0  0  0  0
  5  9  2  0  0  0  0
  9  6  1  0  0  0  0
  7 10  1  0  0  0  0
  7 11  2  0  0  0  0
  9 12  1  0  0  0  0
 12 13  1  0  0  0  0
 12 14  2  0  0  0  0
M  CHG  4   7   1  10  -1  12   1  13  -1
M  END
>  <Name>
Benzene, 1,5-dichloro-2,4-dinitro-

>  <IGC50>
5.72

>  <CAS>
3698-83-7

>  <SET>
ws

>  <Species>
Tetrahymena pyriformis

>  <Test duration>
48h

$$$$

  Mrv1808 07152009202D          

 11 11  0  0  0  0            999 V2000
    2.4763   -2.8595    0.0000 O   0  0  0  0  0  0  0  0  0  0  0  0
    2.0645   -2.1446    0.0000 C   0  0  0  0  0  0  0  0  0  0  0  0
    1.2382   -2.1446    0.0000 C   0  0  0  0  0  0  0  0  0  0  0  0
    2.4763   -1.4297    0.0000 C   0  0  0  0  0  0  0  0  0  0  0  0
    0.8264   -2.8595    0.0000 Cl  0  0  0  0  0  0  0  0  0  0  0  0
    0.8264   -1.4297    0.0000 C   0  0  0  0  0  0  0  0  0  0  0  0
    2.0645   -0.7148    0.0000 C   0  0  0  0  0  0  0  0  0  0  0  0
    0.0000   -1.4297    0.0000 Cl  0  0  0  0  0  0  0  0  0  0  0  0
    1.2382   -0.7148    0.0000 C   0  0  0  0  0  0  0  0  0  0  0  0
    2.4763    0.0000    0.0000 Cl  0  0  0  0  0  0  0  0  0  0  0  0
    0.8264    0.0000    0.0000 Cl  0  0  0  0  0  0  0  0  0  0  0  0
  1  2  1  0  0  0  0
  2  3  2  0  0  0  0
  2  4  1  0  0  0  0
  3  5  1  0  0  0  0
  3  6  1  0  0  0  0
  7  4  2  0  0  0  0
  6  8  1  0  0  0  0
  6  9  2  0  0  0  0
  9  7  1  0  0  0  0
  7 10  1  0  0  0  0
  9 11  1  0  0  0  0
M  END
>  <Name>
Phenol, 2,3,4,5-tetrachloro-

>  <IGC50>
5.72

>  <CAS>
4901-51-3

>  <SET>
ws

>  <Species>
Tetrahymena pyriformis

>  <Test duration>
48h

$$$$

  Mrv1808 07152009202D          

  9  8  0  0  0  0            999 V2000
    4.8941    0.9203    0.0000 C   0  0  0  0  0  0  0  0  0  0  0  0
    4.1412    0.5020    0.0000 N   0  0  0  0  0  0  0  0  0  0  0  0
    5.6052    1.3804    0.0000 S   0  0  0  0  0  0  0  0  0  0  0  0
    3.3882    0.0418    0.0000 C   0  0  0  0  0  0  0  0  0  0  0  0
    2.8026    0.4183    0.0000 C   0  0  0  0  0  0  0  0  0  0  0  0
    2.0915    0.0000    0.0000 C   0  0  0  0  0  0  0  0  0  0  0  0
    1.3804    0.4183    0.0000 N   0  0  0  0  0  0  0  0  0  0  0  0
    0.6274    0.8785    0.0000 C   0  0  0  0  0  0  0  0  0  0  0  0
    0.0000    1.2967    0.0000 S   0  0  0  0  0  0  0  0  0  0  0  0
  1  2  2  0  0  0  0
  1  3  2  0  0  0  0
  2  4  1  0  0  0  0
  5  4  1  0  0  0  0
  5  6  1  0  0  0  0
  6  7  1  0  0  0  0
  7  8  2  0  0  0  0
  8  9  2  0  0  0  0
M  END
>  <Name>
1,3-propylene diisothiocyanate

>  <IGC50>
5.72

>  <CAS>
52714-52-0

>  <SET>
ws

>  <Species>
Tetrahymena pyriformis

>  <Test duration>
48h

$$$$

  Mrv1808 07152009202D          

  7  6  0  0  0  0            999 V2000
    1.6494    0.0000    0.0000 O   0  0  0  0  0  0  0  0  0  0  0  0
    1.2392   -0.7164    0.0000 C   0  0  0  0  0  0  0  0  0  0  0  0
    1.6494   -1.4299    0.0000 O   0  0  0  0  0  0  0  0  0  0  0  0
    0.4131   -0.7164    0.0000 C   0  0  0  0  0  0  0  0  0  0  0  0
    2.4756   -1.4299    0.0000 C   0  0  0  0  0  0  0  0  0  0  0  0
    0.0000   -1.4299    0.0000 Br  0  0  0  0  0  0  0  0  0  0  0  0
    2.8887   -0.7164    0.0000 C   0  0  0  0  0  0  0  0  0  0  0  0
  1  2  2  0  0  0  0
  2  3  1  0  0  0  0
  2  4  1  0  0  0  0
  3  5  1  0  0  0  0
  4  6  1  0  0  0  0
  5  7  1  0  0  0  0
M  END
>  <Name>
Acetic acid, 2-bromo-, ethyl ester

>  <IGC50>
5.678

>  <CAS>
105-36-2

>  <SET>
ws

>  <Species>
Tetrahymena pyriformis

>  <Test duration>
48h

$$$$

  Mrv1808 07152009202D          

 10 10  0  0  0  0            999 V2000
    3.2946   -1.4266    0.0000 O   0  0  0  0  0  0  0  0  0  0  0  0
    2.4710   -1.4266    0.0000 C   0  0  0  0  0  0  0  0  0  0  0  0
    2.0591   -2.1414    0.0000 C   0  0  0  0  0  0  0  0  0  0  0  0
    2.0591   -0.7116    0.0000 C   0  0  0  0  0  0  0  0  0  0  0  0
    2.4710   -2.8531    0.0000 I   0  0  0  0  0  0  0  0  0  0  0  0
    1.2354   -2.1414    0.0000 C   0  0  0  0  0  0  0  0  0  0  0  0
    1.2354   -0.7116    0.0000 C   0  0  0  0  0  0  0  0  0  0  0  0
    2.4710    0.0000    0.0000 I   0  0  0  0  0  0  0  0  0  0  0  0
    0.8237   -1.4266    0.0000 C   0  0  0  0  0  0  0  0  0  0  0  0
    0.0000   -1.4266    0.0000 I   0  0  0  0  0  0  0  0  0  0  0  0
  1  2  1  0  0  0  0
  2  3  2  0  0  0  0
  2  4  1  0  0  0  0
  3  5  1  0  0  0  0
  3  6  1  0  0  0  0
  7  4  2  0  0  0  0
  4  8  1  0  0  0  0
  6  9  2  0  0  0  0
  9  7  1  0  0  0  0
  9 10  1  0  0  0  0
M  END
>  <Name>
Phenol, 2,4,6-triiodo-

>  <IGC50>
5.67

>  <CAS>
609-23-4

>  <SET>
ws

>  <Species>
Tetrahymena pyriformis

>  <Test duration>
48h

$$$$

  Mrv1808 07152009202D          

 12 12  0  0  0  0            999 V2000
    0.0000   -1.4265    0.0000 O   0  0  0  0  0  0  0  0  0  0  0  0
    0.8236   -1.4265    0.0000 C   0  0  0  0  0  0  0  0  0  0  0  0
    1.2354   -0.7116    0.0000 C   0  0  0  0  0  0  0  0  0  0  0  0
    1.2354   -2.1414    0.0000 C   0  0  0  0  0  0  0  0  0  0  0  0
    0.8236    0.0000    0.0000 Br  0  0  0  0  0  0  0  0  0  0  0  0
    2.0590   -0.7116    0.0000 C   0  0  0  0  0  0  0  0  0  0  0  0
    2.0590   -2.1414    0.0000 C   0  0  0  0  0  0  0  0  0  0  0  0
    0.8236   -2.8530    0.0000 Br  0  0  0  0  0  0  0  0  0  0  0  0
    2.4709    0.0000    0.0000 Br  0  0  0  0  0  0  0  0  0  0  0  0
    2.4709   -1.4265    0.0000 C   0  0  0  0  0  0  0  0  0  0  0  0
    2.4709   -2.8530    0.0000 Br  0  0  0  0  0  0  0  0  0  0  0  0
    3.2945   -1.4265    0.0000 Br  0  0  0  0  0  0  0  0  0  0  0  0
  1  2  1  0  0  0  0
  2  3  2  0  0  0  0
  2  4  1  0  0  0  0
  3  5  1  0  0  0  0
  3  6  1  0  0  0  0
  7  4  2  0  0  0  0
  4  8  1  0  0  0  0
  6  9  1  0  0  0  0
  6 10  2  0  0  0  0
 10  7  1  0  0  0  0
  7 11  1  0  0  0  0
 10 12  1  0  0  0  0
M  END
>  <Name>
Phenol, pentabromo-

>  <IGC50>
5.66

>  <CAS>
608-71-9

>  <SET>
ws

>  <Species>
Tetrahymena pyriformis

>  <Test duration>
48h

$$$$

  Mrv1808 07152009202D          

 15 15  0  0  0  0            999 V2000
    1.4025    3.7125    0.0000 O   0  0  0  0  0  0  0  0  0  0  0  0
    2.1450    3.3413    0.0000 N   0  0  0  0  0  0  0  0  0  0  0  0
    2.8462    3.7537    0.0000 O   0  0  0  0  0  0  0  0  0  0  0  0
    2.1450    2.4750    0.0000 C   0  0  0  0  0  0  0  0  0  0  0  0
    1.4025    2.0625    0.0000 C   0  0  0  0  0  0  0  0  0  0  0  0
    2.8462    2.0625    0.0000 C   0  0  0  0  0  0  0  0  0  0  0  0
    0.7012    2.4750    0.0000 Cl  0  0  0  0  0  0  0  0  0  0  0  0
    1.4025    1.2375    0.0000 C   0  0  0  0  0  0  0  0  0  0  0  0
    2.8462    1.2375    0.0000 C   0  0  0  0  0  0  0  0  0  0  0  0
    0.7012    0.8250    0.0000 N   0  0  0  0  0  0  0  0  0  0  0  0
    2.1450    0.8250    0.0000 C   0  0  0  0  0  0  0  0  0  0  0  0
    3.5475    0.8250    0.0000 C   0  0  0  0  0  0  0  0  0  0  0  0
    0.0000    1.2375    0.0000 O   0  0  0  0  0  0  0  0  0  0  0  0
    0.7012    0.0000    0.0000 O   0  0  0  0  0  0  0  0  0  0  0  0
    4.2487    0.4125    0.0000 N   0  0  0  0  0  0  0  0  0  0  0  0
  1  2  2  0  0  0  0
  2  3  2  0  0  0  0
  2  4  1  0  0  0  0
  5  4  2  0  0  0  0
  4  6  1  0  0  0  0
  5  7  1  0  0  0  0
  8  5  1  0  0  0  0
  6  9  2  0  0  0  0
  8 10  1  0  0  0  0
 11  8  2  0  0  0  0
  9 11  1  0  0  0  0
  9 12  1  0  0  0  0
 10 13  2  0  0  0  0
 10 14  2  0  0  0  0
 12 15  3  0  0  0  0
M  END
>  <Name>
Benzonitrile, 4-chloro-3,5-dinitro-

>  <IGC50>
5.66

>  <CAS>
1930-72-9

>  <SET>
ws

>  <Species>
Tetrahymena pyriformis

>  <Test duration>
48h

$$$$

  Mrv1808 07152009203D          

 13 13  0  0  0  0            999 V2000
   -1.0349    0.9159   -0.0181 C   0  0  0  0  0  0  0  0  0  0  0  0
   -0.6916   -0.4503   -0.0003 C   0  0  0  0  0  0  0  0  0  0  0  0
   -0.0626    1.8744   -0.0199 N   0  0  0  0  0  0  0  0  0  0  0  0
   -2.5986    1.4789   -0.0513 Cl  0  0  0  0  0  0  0  0  0  0  0  0
    0.6644   -0.8072    0.0099 C   0  0  0  0  0  0  0  0  0  0  0  0
   -1.7311   -1.5383    0.0088 N   0  3  0  0  0  0  0  0  0  0  0  0
    1.2364    1.5429   -0.0039 C   0  0  0  0  0  0  0  0  0  0  0  0
    1.6383    0.1916    0.0108 C   0  0  0  0  0  0  0  0  0  0  0  0
   -2.8497   -1.2807    0.3964 O   0  0  0  0  0  0  0  0  0  0  0  0
   -1.4145   -2.6451   -0.3700 O   0  5  0  0  0  0  0  0  0  0  0  0
    3.0993   -0.1581    0.0283 N   0  3  0  0  0  0  0  0  0  0  0  0
    3.4227   -1.3211    0.1382 O   0  0  0  0  0  0  0  0  0  0  0  0
    3.9131    0.7360   -0.0654 O   0  5  0  0  0  0  0  0  0  0  0  0
  1  2  1  0  0  0  0
  1  3  2  0  0  0  0
  1  4  1  0  0  0  0
  2  5  2  0  0  0  0
  2  6  1  0  0  0  0
  7  3  1  0  0  0  0
  5  8  1  0  0  0  0
  6  9  2  0  0  0  0
  6 10  1  0  0  0  0
  8  7  2  0  0  0  0
  8 11  1  0  0  0  0
 11 12  2  0  0  0  0
 11 13  1  0  0  0  0
M  CHG  4   6   1  10  -1  11   1  13  -1
M  END
>  <Name>
Pyridine, 2-chloro-3,5-dinitro-

>  <IGC50>
5.64

>  <CAS>
2578-45-2

>  <SET>
ws

>  <Species>
Tetrahymena pyriformis

>  <Test duration>
48h

$$$$

  Mrv1808 07152009202D          

 19 19  0  0  0  0            999 V2000
   10.3311    1.1069    0.0000 C   0  0  0  0  0  0  0  0  0  0  0  0
    9.5931    0.6559    0.0000 C   0  0  0  0  0  0  0  0  0  0  0  0
    8.8962    1.1069    0.0000 C   0  0  0  0  0  0  0  0  0  0  0  0
    8.1583    0.6559    0.0000 C   0  0  0  0  0  0  0  0  0  0  0  0
    7.4204    1.1069    0.0000 C   0  0  0  0  0  0  0  0  0  0  0  0
    6.7234    0.6559    0.0000 C   0  0  0  0  0  0  0  0  0  0  0  0
    5.9854    1.1069    0.0000 C   0  0  0  0  0  0  0  0  0  0  0  0
    5.2475    0.6559    0.0000 C   0  0  0  0  0  0  0  0  0  0  0  0
    4.5096    1.1069    0.0000 C   0  0  0  0  0  0  0  0  0  0  0  0
    3.8127    0.6970    0.0000 O   0  0  0  0  0  0  0  0  0  0  0  0
    3.1157    1.1069    0.0000 C   0  0  0  0  0  0  0  0  0  0  0  0
    3.1157    1.8858    0.0000 O   0  0  0  0  0  0  0  0  0  0  0  0
    2.4188    0.6970    0.0000 C   0  0  0  0  0  0  0  0  0  0  0  0
    2.0089    1.3939    0.0000 C   0  0  0  0  0  0  0  0  0  0  0  0
    2.0089    0.0000    0.0000 C   0  0  0  0  0  0  0  0  0  0  0  0
    1.2299    1.3939    0.0000 C   0  0  0  0  0  0  0  0  0  0  0  0
    1.2299    0.0000    0.0000 C   0  0  0  0  0  0  0  0  0  0  0  0
    0.8199    0.6970    0.0000 C   0  0  0  0  0  0  0  0  0  0  0  0
    0.0000    0.6970    0.0000 O   0  0  0  0  0  0  0  0  0  0  0  0
  1  2  1  0  0  0  0
  2  3  1  0  0  0  0
  3  4  1  0  0  0  0
  4  5  1  0  0  0  0
  5  6  1  0  0  0  0
  6  7  1  0  0  0  0
  7  8  1  0  0  0  0
  8  9  1  0  0  0  0
  9 10  1  0  0  0  0
 10 11  1  0  0  0  0
 12 11  2  0  0  0  0
 11 13  1  0  0  0  0
 14 13  2  0  0  0  0
 13 15  1  0  0  0  0
 16 14  1  0  0  0  0
 15 17  2  0  0  0  0
 18 16  2  0  0  0  0
 17 18  1  0  0  0  0
 19 18  1  0  0  0  0
M  END
>  <Name>
Benzoic acid, 4-hydroxy-, nonyl ester

>  <IGC50>
5.63

>  <CAS>
38713-56-3

>  <SET>
ws

>  <Species>
Tetrahymena pyriformis

>  <Test duration>
48h

$$$$

  Mrv1808 07152009203D          

  6  5  0  0  0  0            999 V2000
   -2.4176   -0.6111   -0.6655 Br  0  0  0  0  0  0  0  0  0  0  0  0
   -1.3312    0.0564    0.7882 C   0  0  0  0  0  0  0  0  0  0  0  0
    0.0323    0.3379    0.2169 C   0  0  0  0  0  0  0  0  0  0  0  0
    0.2877    1.4245   -0.3025 O   0  0  0  0  0  0  0  0  0  0  0  0
    1.0478   -0.7897    0.2933 C   0  0  0  0  0  0  0  0  0  0  0  0
    2.3810   -0.4180   -0.3305 C   0  0  0  0  0  0  0  0  0  0  0  0
  1  2  1  0  0  0  0
  3  2  1  0  0  0  0
  4  3  2  0  0  0  0
  5  3  1  0  0  0  0
  5  6  1  0  0  0  0
M  END
>  <Name>
1-bromobutan-2-one

>  <IGC50>
5.602

>  <CAS>
816-40-0

>  <SET>
ws

>  <Species>
Tetrahymena pyriformis

>  <Test duration>
48h

$$$$

  Mrv1808 07152009203D          

 15 15  0  0  0  0            999 V2000
    0.0000    0.0000    0.0000 O   0  5  0  0  0  0  0  0  0  0  0  0
   -0.8400   -0.5000   -0.7600 N   0  3  0  0  0  0  0  0  0  0  0  0
   -1.2600    0.0200   -1.7600 O   0  0  0  0  0  0  0  0  0  0  0  0
   -1.3200   -1.7600   -0.4400 C   0  0  0  0  0  0  0  0  0  0  0  0
   -0.4200   -2.8000   -0.2000 C   0  0  0  0  0  0  0  0  0  0  0  0
   -2.7200   -1.9800   -0.3600 C   0  0  0  0  0  0  0  0  0  0  0  0
    1.2800   -2.5400   -0.3000 Cl  0  0  0  0  0  0  0  0  0  0  0  0
   -0.9200   -4.0800    0.1400 C   0  0  0  0  0  0  0  0  0  0  0  0
   -3.2000   -3.2600   -0.0200 C   0  0  0  0  0  0  0  0  0  0  0  0
   -3.7800   -0.6600   -0.6600 Cl  0  0  0  0  0  0  0  0  0  0  0  0
   -0.0400   -5.1400    0.3800 N   0  3  0  0  0  0  0  0  0  0  0  0
   -2.3000   -4.3200    0.2200 C   0  0  0  0  0  0  0  0  0  0  0  0
   -4.8800   -3.6200    0.0800 Cl  0  0  0  0  0  0  0  0  0  0  0  0
   -0.4400   -6.2600    0.1200 O   0  0  0  0  0  0  0  0  0  0  0  0
    1.0600   -4.8600    0.8600 O   0  5  0  0  0  0  0  0  0  0  0  0
  1  2  1  0  0  0  0
  2  3  2  0  0  0  0
  2  4  1  0  0  0  0
  4  5  2  0  0  0  0
  4  6  1  0  0  0  0
  5  7  1  0  0  0  0
  5  8  1  0  0  0  0
  9  6  2  0  0  0  0
  6 10  1  0  0  0  0
 11  8  1  0  0  0  0
  8 12  2  0  0  0  0
 12  9  1  0  0  0  0
  9 13  1  0  0  0  0
 11 14  2  0  0  0  0
 11 15  1  0  0  0  0
M  CHG  4   1  -1   2   1  11   1  15  -1
M  END
>  <Name>
Benzene, 1,2,4-trichloro-3,5-dinitro-

>  <IGC50>
5.6

>  <CAS>
2678-21-9

>  <SET>
ws

>  <Species>
Tetrahymena pyriformis

>  <Test duration>
48h

$$$$

  Mrv1808 07152009202D          

 14 14  0  0  0  0            999 V2000
    2.0495    2.1331    0.0000 C   0  0  0  0  0  0  0  0  0  0  0  0
    1.6312    2.8442    0.0000 F   0  0  0  0  0  0  0  0  0  0  0  0
    1.6312    1.4221    0.0000 C   0  0  0  0  0  0  0  0  0  0  0  0
    2.8860    2.1331    0.0000 C   0  0  0  0  0  0  0  0  0  0  0  0
    2.0495    0.7110    0.0000 C   0  0  0  0  0  0  0  0  0  0  0  0
    0.7947    1.4221    0.0000 C   0  0  0  0  0  0  0  0  0  0  0  0
    3.3042    2.8442    0.0000 F   0  0  0  0  0  0  0  0  0  0  0  0
    3.3042    1.4221    0.0000 C   0  0  0  0  0  0  0  0  0  0  0  0
    2.8860    0.7110    0.0000 C   0  0  0  0  0  0  0  0  0  0  0  0
    1.5894    0.0000    0.0000 F   0  0  0  0  0  0  0  0  0  0  0  0
    0.0000    1.4221    0.0000 N   0  0  0  0  0  0  0  0  0  0  0  0
    4.1408    1.4221    0.0000 C   0  0  0  0  0  0  0  0  0  0  0  0
    3.3042    0.0000    0.0000 F   0  0  0  0  0  0  0  0  0  0  0  0
    4.9773    1.4221    0.0000 N   0  0  0  0  0  0  0  0  0  0  0  0
  1  2  1  0  0  0  0
  1  3  2  0  0  0  0
  4  1  1  0  0  0  0
  3  5  1  0  0  0  0
  3  6  1  0  0  0  0
  4  7  1  0  0  0  0
  8  4  2  0  0  0  0
  5  9  2  0  0  0  0
  5 10  1  0  0  0  0
  6 11  3  0  0  0  0
  9  8  1  0  0  0  0
  8 12  1  0  0  0  0
  9 13  1  0  0  0  0
 12 14  3  0  0  0  0
M  END
>  <Name>
Terephthalonitrile, tetrafluoro- (8CI)

>  <IGC50>
5.55

>  <CAS>
1835-49-0

>  <SET>
ws

>  <Species>
Tetrahymena pyriformis

>  <Test duration>
48h

$$$$

  Mrv1808 07152009202D          

 11 11  0  0  0  0            999 V2000
    3.5733   -1.2411    0.0000 C   0  0  0  0  0  0  0  0  0  0  0  0
    2.8576   -1.6515    0.0000 C   0  0  0  0  0  0  0  0  0  0  0  0
    3.5733   -0.4154    0.0000 C   0  0  0  0  0  0  0  0  0  0  0  0
    4.2889   -1.6515    0.0000 C   0  0  0  0  0  0  0  0  0  0  0  0
    2.1470   -1.2411    0.0000 C   0  0  0  0  0  0  0  0  0  0  0  0
    4.2889    0.0000    0.0000 C   0  0  0  0  0  0  0  0  0  0  0  0
    5.0046   -1.2411    0.0000 C   0  0  0  0  0  0  0  0  0  0  0  0
    1.4313   -1.6515    0.0000 N   0  0  0  0  0  0  0  0  0  0  0  0
    5.0046   -0.4154    0.0000 C   0  0  0  0  0  0  0  0  0  0  0  0
    0.7157   -1.2411    0.0000 C   0  0  0  0  0  0  0  0  0  0  0  0
    0.0000   -0.8258    0.0000 S   0  0  0  0  0  0  0  0  0  0  0  0
  1  2  1  0  0  0  0
  1  3  2  0  0  0  0
  1  4  1  0  0  0  0
  2  5  1  0  0  0  0
  3  6  1  0  0  0  0
  7  4  2  0  0  0  0
  5  8  1  0  0  0  0
  6  9  2  0  0  0  0
  9  7  1  0  0  0  0
  8 10  2  0  0  0  0
 10 11  2  0  0  0  0
M  END
>  <Name>
Isothiocyanic acid, phenethyl ester

>  <IGC50>
5.538

>  <CAS>
2257-09-2

>  <SET>
ws

>  <Species>
Tetrahymena pyriformis

>  <Test duration>
48h

$$$$

  Mrv1808 07152009202D          

 12 12  0  0  0  0            999 V2000
    4.9869   -0.4218    0.0000 C   0  0  0  0  0  0  0  0  0  0  0  0
    4.2745   -0.8378    0.0000 N   0  0  0  0  0  0  0  0  0  0  0  0
    5.6993    0.0000    0.0000 S   0  0  0  0  0  0  0  0  0  0  0  0
    3.5563   -0.4275    0.0000 C   0  0  0  0  0  0  0  0  0  0  0  0
    2.8496   -0.8435    0.0000 C   0  0  0  0  0  0  0  0  0  0  0  0
    2.1429   -0.4388    0.0000 C   0  0  0  0  0  0  0  0  0  0  0  0
    1.4305   -0.8606    0.0000 C   0  0  0  0  0  0  0  0  0  0  0  0
    0.7124   -0.4502    0.0000 C   0  0  0  0  0  0  0  0  0  0  0  0
    1.4305   -1.6756    0.0000 C   0  0  0  0  0  0  0  0  0  0  0  0
    0.0000   -0.8663    0.0000 C   0  0  0  0  0  0  0  0  0  0  0  0
    0.7181   -2.0916    0.0000 C   0  0  0  0  0  0  0  0  0  0  0  0
    0.0057   -1.6927    0.0000 C   0  0  0  0  0  0  0  0  0  0  0  0
  1  2  2  0  0  0  0
  1  3  2  0  0  0  0
  2  4  1  0  0  0  0
  4  5  1  0  0  0  0
  5  6  1  0  0  0  0
  6  7  1  0  0  0  0
  8  7  2  0  0  0  0
  7  9  1  0  0  0  0
 10  8  1  0  0  0  0
 11  9  2  0  0  0  0
 12 10  2  0  0  0  0
 11 12  1  0  0  0  0
M  END
>  <Name>
3-Phenylpropyl isothiocyanate

>  <IGC50>
5.538

>  <CAS>
2627-27-2

>  <SET>
ws

>  <Species>
Tetrahymena pyriformis

>  <Test duration>
48h

$$$$

  Mrv1808 07152009202D          

 18 18  0  0  0  0            999 V2000
    2.8589   -2.8910    0.0000 C   0  0  0  0  0  0  0  0  0  0  0  0
    2.1441   -2.4789    0.0000 C   0  0  0  0  0  0  0  0  0  0  0  0
    3.5800   -2.4789    0.0000 O   0  0  0  0  0  0  0  0  0  0  0  0
    2.8589   -3.7152    0.0000 O   0  0  0  0  0  0  0  0  0  0  0  0
    1.4294   -2.8910    0.0000 C   0  0  0  0  0  0  0  0  0  0  0  0
    2.1441   -1.6483    0.0000 C   0  0  0  0  0  0  0  0  0  0  0  0
    4.2947   -2.8910    0.0000 C   0  0  0  0  0  0  0  0  0  0  0  0
    0.7147   -2.4789    0.0000 C   0  0  0  0  0  0  0  0  0  0  0  0
    1.4294   -1.2362    0.0000 C   0  0  0  0  0  0  0  0  0  0  0  0
    5.0094   -2.4789    0.0000 C   0  0  0  0  0  0  0  0  0  0  0  0
    0.7147   -1.6483    0.0000 C   0  0  0  0  0  0  0  0  0  0  0  0
    5.7241   -2.8910    0.0000 C   0  0  0  0  0  0  0  0  0  0  0  0
    5.0094   -1.6483    0.0000 C   0  0  0  0  0  0  0  0  0  0  0  0
    0.0000   -1.2362    0.0000 O   0  0  0  0  0  0  0  0  0  0  0  0
    6.4388   -2.4789    0.0000 C   0  0  0  0  0  0  0  0  0  0  0  0
    5.7241   -1.2362    0.0000 C   0  0  0  0  0  0  0  0  0  0  0  0
    5.7241   -0.4121    0.0000 C   0  0  0  0  0  0  0  0  0  0  0  0
    6.4388    0.0000    0.0000 C   0  0  0  0  0  0  0  0  0  0  0  0
  1  2  1  0  0  0  0
  1  3  1  0  0  0  0
  1  4  2  0  0  0  0
  2  5  1  0  0  0  0
  2  6  2  0  0  0  0
  3  7  1  0  0  0  0
  5  8  2  0  0  0  0
  9  6  1  0  0  0  0
  7 10  1  0  0  0  0
  8 11  1  0  0  0  0
 11  9  2  0  0  0  0
 10 12  1  0  0  0  0
 10 13  1  0  0  0  0
 11 14  1  0  0  0  0
 12 15  1  0  0  0  0
 13 16  1  0  0  0  0
 16 17  1  0  0  0  0
 17 18  1  0  0  0  0
M  END
>  <Name>
2-ethylhexyl 4-hydroxybenzoate

>  <IGC50>
5.51

>  <CAS>
5153-25-3

>  <SET>
ws

>  <Species>
Tetrahymena pyriformis

>  <Test duration>
48h

$$$$

  Mrv1808 07152009202D          

 16 16  0  0  0  0            999 V2000
    0.0000   -1.6520    0.0000 C   0  0  0  0  0  0  0  0  0  0  0  0
    0.7142   -1.2391    0.0000 C   0  0  0  0  0  0  0  0  0  0  0  0
    1.4370   -1.6520    0.0000 C   0  0  0  0  0  0  0  0  0  0  0  0
    2.1511   -1.2391    0.0000 C   0  0  0  0  0  0  0  0  0  0  0  0
    2.8653   -1.6520    0.0000 C   0  0  0  0  0  0  0  0  0  0  0  0
    3.5880   -1.2391    0.0000 C   0  0  0  0  0  0  0  0  0  0  0  0
    4.3022   -1.6520    0.0000 C   0  0  0  0  0  0  0  0  0  0  0  0
    5.0163   -1.2391    0.0000 C   0  0  0  0  0  0  0  0  0  0  0  0
    5.7391   -1.6520    0.0000 C   0  0  0  0  0  0  0  0  0  0  0  0
    6.4533   -1.2391    0.0000 C   0  0  0  0  0  0  0  0  0  0  0  0
    6.4533   -0.4130    0.0000 C   0  0  0  0  0  0  0  0  0  0  0  0
    7.1675   -1.6520    0.0000 C   0  0  0  0  0  0  0  0  0  0  0  0
    7.1675    0.0000    0.0000 C   0  0  0  0  0  0  0  0  0  0  0  0
    7.8902   -1.2391    0.0000 C   0  0  0  0  0  0  0  0  0  0  0  0
    7.8902   -0.4130    0.0000 C   0  0  0  0  0  0  0  0  0  0  0  0
    8.6044    0.0000    0.0000 O   0  0  0  0  0  0  0  0  0  0  0  0
  1  2  1  0  0  0  0
  2  3  1  0  0  0  0
  3  4  1  0  0  0  0
  4  5  1  0  0  0  0
  5  6  1  0  0  0  0
  6  7  1  0  0  0  0
  7  8  1  0  0  0  0
  8  9  1  0  0  0  0
  9 10  1  0  0  0  0
 10 11  2  0  0  0  0
 10 12  1  0  0  0  0
 11 13  1  0  0  0  0
 14 12  2  0  0  0  0
 13 15  2  0  0  0  0
 15 14  1  0  0  0  0
 15 16  1  0  0  0  0
M  END
>  <Name>
Phenol, 4-nonyl-

>  <IGC50>
5.47

>  <CAS>
104-40-5

>  <SET>
ws

>  <Species>
Tetrahymena pyriformis

>  <Test duration>
48h

$$$$

  Mrv1808 07152009202D          

  4  3  0  0  0  0            999 V2000
    0.0000    0.0000    0.0000 C   0  0  0  0  0  0  0  0  0  0  0  0
   -0.8250    0.0000    0.0000 C   0  0  0  0  0  0  0  0  0  0  0  0
    0.6555    0.0000    0.0000 N   0  0  0  0  0  0  0  0  0  0  0  0
   -1.2318    1.1527    0.0000 I   0  0  0  0  0  0  0  0  0  0  0  0
  1  2  1  0  0  0  0
  1  3  3  0  0  0  0
  2  4  1  0  0  0  0
M  END
>  <Name>
2-iodoacetonitrile

>  <IGC50>
5.469

>  <CAS>
624-75-9

>  <SET>
ws

>  <Species>
Tetrahymena pyriformis

>  <Test duration>
48h

$$$$

  Mrv1808 07152009202D          

 14 13  0  0  0  0            999 V2000
    0.0000   -0.4093    0.0000 C   0  0  0  0  0  0  0  0  0  0  0  0
    0.7163    0.0000    0.0000 C   0  0  0  0  0  0  0  0  0  0  0  0
    1.4326   -0.4093    0.0000 C   0  0  0  0  0  0  0  0  0  0  0  0
    2.1489    0.0000    0.0000 C   0  0  0  0  0  0  0  0  0  0  0  0
    2.8652   -0.4093    0.0000 C   0  0  0  0  0  0  0  0  0  0  0  0
    3.5816    0.0000    0.0000 C   0  0  0  0  0  0  0  0  0  0  0  0
    4.2978   -0.4093    0.0000 C   0  0  0  0  0  0  0  0  0  0  0  0
    5.0048    0.0000    0.0000 C   0  0  0  0  0  0  0  0  0  0  0  0
    5.7212   -0.4093    0.0000 C   0  0  0  0  0  0  0  0  0  0  0  0
    6.4375    0.0000    0.0000 C   0  0  0  0  0  0  0  0  0  0  0  0
    7.1537   -0.4093    0.0000 C   0  0  0  0  0  0  0  0  0  0  0  0
    7.8700    0.0000    0.0000 C   0  0  0  0  0  0  0  0  0  0  0  0
    8.5864   -0.4093    0.0000 C   0  0  0  0  0  0  0  0  0  0  0  0
    9.3027    0.0000    0.0000 O   0  0  0  0  0  0  0  0  0  0  0  0
  1  2  1  0  0  0  0
  2  3  1  0  0  0  0
  3  4  1  0  0  0  0
  4  5  1  0  0  0  0
  5  6  1  0  0  0  0
  6  7  1  0  0  0  0
  7  8  1  0  0  0  0
  8  9  1  0  0  0  0
  9 10  1  0  0  0  0
 10 11  1  0  0  0  0
 11 12  1  0  0  0  0
 12 13  1  0  0  0  0
 13 14  1  0  0  0  0
M  END
>  <Name>
1-Tridecanol

>  <IGC50>
5.45

>  <CAS>
112-70-9

>  <SET>
ws

>  <Species>
Tetrahymena pyriformis

>  <Test duration>
48h

$$$$

  Mrv1808 07152009202D          

 14 14  0  0  0  0            999 V2000
    0.7013    2.0625    0.0000 C   0  0  0  0  0  0  0  0  0  0  0  0
    0.0000    2.4750    0.0000 F   0  0  0  0  0  0  0  0  0  0  0  0
    1.4438    2.4750    0.0000 C   0  0  0  0  0  0  0  0  0  0  0  0
    0.7013    1.2375    0.0000 C   0  0  0  0  0  0  0  0  0  0  0  0
    2.1450    2.0625    0.0000 C   0  0  0  0  0  0  0  0  0  0  0  0
    1.4438    3.3000    0.0000 F   0  0  0  0  0  0  0  0  0  0  0  0
    1.4438    0.8250    0.0000 C   0  0  0  0  0  0  0  0  0  0  0  0
    0.0000    0.8250    0.0000 F   0  0  0  0  0  0  0  0  0  0  0  0
    2.1450    1.2375    0.0000 C   0  0  0  0  0  0  0  0  0  0  0  0
    2.8462    2.4750    0.0000 N   0  0  0  0  0  0  0  0  0  0  0  0
    1.4438    0.0000    0.0000 F   0  0  0  0  0  0  0  0  0  0  0  0
    2.8462    0.8250    0.0000 F   0  0  0  0  0  0  0  0  0  0  0  0
    3.5888    2.0625    0.0000 O   0  0  0  0  0  0  0  0  0  0  0  0
    2.8462    3.3000    0.0000 O   0  0  0  0  0  0  0  0  0  0  0  0
  1  2  1  0  0  0  0
  1  3  2  0  0  0  0
  4  1  1  0  0  0  0
  3  5  1  0  0  0  0
  3  6  1  0  0  0  0
  7  4  2  0  0  0  0
  4  8  1  0  0  0  0
  5  9  2  0  0  0  0
  5 10  1  0  0  0  0
  9  7  1  0  0  0  0
  7 11  1  0  0  0  0
  9 12  1  0  0  0  0
 10 13  2  0  0  0  0
 10 14  2  0  0  0  0
M  END
>  <Name>
Pentafluoronitrobenzene

>  <IGC50>
5.43

>  <CAS>
880-78-4

>  <SET>
ws

>  <Species>
Tetrahymena pyriformis

>  <Test duration>
48h

$$$$

  Mrv1808 07152009202D          

 14 14  0  0  0  0            999 V2000
    2.1806    1.3254    0.0000 C   0  0  0  0  0  0  0  0  0  0  0  0
    2.1806    2.0951    0.0000 C   0  0  0  0  0  0  0  0  0  0  0  0
    1.4965    0.8979    0.0000 C   0  0  0  0  0  0  0  0  0  0  0  0
    2.9502    0.8551    0.0000 N   0  0  0  0  0  0  0  0  0  0  0  0
    1.4965    2.5227    0.0000 C   0  0  0  0  0  0  0  0  0  0  0  0
    2.9502    2.5654    0.0000 N   0  0  0  0  0  0  0  0  0  0  0  0
    0.7697    1.3254    0.0000 C   0  0  0  0  0  0  0  0  0  0  0  0
    2.9502    0.0000    0.0000 O   0  0  0  0  0  0  0  0  0  0  0  0
    3.6770    1.3254    0.0000 O   0  0  0  0  0  0  0  0  0  0  0  0
    0.7697    2.0951    0.0000 C   0  0  0  0  0  0  0  0  0  0  0  0
    1.4965    3.3778    0.0000 Cl  0  0  0  0  0  0  0  0  0  0  0  0
    3.6770    2.1378    0.0000 O   0  0  0  0  0  0  0  0  0  0  0  0
    2.9502    3.4205    0.0000 O   0  0  0  0  0  0  0  0  0  0  0  0
    0.0000    0.8979    0.0000 Cl  0  0  0  0  0  0  0  0  0  0  0  0
  2  1  2  0  0  0  0
  1  3  1  0  0  0  0
  1  4  1  0  0  0  0
  5  2  1  0  0  0  0
  2  6  1  0  0  0  0
  3  7  2  0  0  0  0
  4  8  2  0  0  0  0
  4  9  2  0  0  0  0
 10  5  2  0  0  0  0
  5 11  1  0  0  0  0
  6 12  2  0  0  0  0
  6 13  2  0  0  0  0
  7 10  1  0  0  0  0
  7 14  1  0  0  0  0
M  END
>  <Name>
Benzene, 1,5-dichloro-2,3-dinitro-

>  <IGC50>
5.42

>  <CAS>
28689-08-9

>  <SET>
ws

>  <Species>
Tetrahymena pyriformis

>  <Test duration>
48h

$$$$

  Mrv1808 07152009203D          

  9  8  0  0  0  0            999 V2000
   -3.6911    0.0774    0.0308 Br  0  0  0  0  0  0  0  0  0  0  0  0
   -2.0505   -0.9552   -0.0233 C   0  0  0  0  0  0  0  0  0  0  0  0
   -0.8692   -0.0257   -0.0149 C   0  0  0  0  0  0  0  0  0  0  0  0
    0.2719   -0.7843   -0.0030 O   0  0  0  0  0  0  0  0  0  0  0  0
   -0.9040    1.1965   -0.0188 O   0  0  0  0  0  0  0  0  0  0  0  0
    1.5000   -0.0554    0.0051 C   0  0  1  0  0  0  0  0  0  0  0  0
    1.5378    0.8193    1.2575 C   0  0  0  0  0  0  0  0  0  0  0  0
    2.6387   -1.0727    0.0256 C   0  0  0  0  0  0  0  0  0  0  0  0
    1.5664    0.8001   -1.2591 C   0  0  0  0  0  0  0  0  0  0  0  0
  1  2  1  0  0  0  0
  3  2  1  0  0  0  0
  4  3  1  0  0  0  0
  5  3  2  0  0  0  0
  4  6  1  0  0  0  0
  6  7  1  0  0  0  0
  6  8  1  0  0  0  0
  6  9  1  0  0  0  0
M  END
>  <Name>
tert-butyl 2-bromoacetate

>  <IGC50>
5.409

>  <CAS>
5292-43-3

>  <SET>
ws

>  <Species>
Tetrahymena pyriformis

>  <Test duration>
48h

$$$$

  Mrv1808 07152009202D          

  5  4  0  0  0  0            999 V2000
    0.0000    0.0000    0.0000 N   0  0  0  0  0  0  0  0  0  0  0  0
    0.4107   -0.7122    0.0000 C   0  0  0  0  0  0  0  0  0  0  0  0
    0.8234   -1.4265    0.0000 C   0  0  0  0  0  0  0  0  0  0  0  0
    1.6468   -1.4265    0.0000 Br  0  0  0  0  0  0  0  0  0  0  0  0
    0.4107   -2.1387    0.0000 Br  0  0  0  0  0  0  0  0  0  0  0  0
  1  2  3  0  0  0  0
  2  3  1  0  0  0  0
  3  4  1  0  0  0  0
  3  5  1  0  0  0  0
M  END
>  <Name>
Acetonitrile, dibromo-

>  <IGC50>
5.398

>  <CAS>
3252-43-5

>  <SET>
ws

>  <Species>
Tetrahymena pyriformis

>  <Test duration>
48h

$$$$

  Mrv1808 07152009203D          

 20 23  0  0  0  0            999 V2000
   -5.1641   -1.9357    0.7576 Br  0  0  0  0  0  0  0  0  0  0  0  0
   -4.0664   -0.3560    1.0343 C   0  0  0  0  0  0  0  0  0  0  0  0
   -3.3254    0.0230   -0.2460 C   0  0  0  0  0  0  0  0  0  0  0  0
   -3.8366   -0.1647   -1.3646 O   0  0  0  0  0  0  0  0  0  0  0  0
   -2.0011    0.6298   -0.1430 C   0  0  0  0  0  0  0  0  0  0  0  0
   -0.8226   -0.1304   -0.1228 C   0  0  0  0  0  0  0  0  0  0  0  0
   -1.9495    2.0205   -0.0652 C   0  0  0  0  0  0  0  0  0  0  0  0
    0.4247    0.5290   -0.0222 C   0  0  0  0  0  0  0  0  0  0  0  0
   -0.8529   -1.5292   -0.1999 C   0  0  0  0  0  0  0  0  0  0  0  0
   -0.7212    2.6721    0.0340 C   0  0  0  0  0  0  0  0  0  0  0  0
    1.6244   -0.2248   -0.0005 C   0  0  0  0  0  0  0  0  0  0  0  0
    0.4750    1.9402    0.0566 C   0  0  0  0  0  0  0  0  0  0  0  0
    0.3293   -2.2719   -0.1784 C   0  0  0  0  0  0  0  0  0  0  0  0
    1.5741   -1.6360   -0.0794 C   0  0  0  0  0  0  0  0  0  0  0  0
    2.8716    0.4345    0.1001 C   0  0  0  0  0  0  0  0  0  0  0  0
    1.7198    2.5761    0.1559 C   0  0  0  0  0  0  0  0  0  0  0  0
    2.7703   -2.3679   -0.0565 C   0  0  0  0  0  0  0  0  0  0  0  0
    2.9020    1.8334    0.1772 C   0  0  0  0  0  0  0  0  0  0  0  0
    4.0502   -0.3256    0.1204 C   0  0  0  0  0  0  0  0  0  0  0  0
    3.9985   -1.7163    0.0426 C   0  0  0  0  0  0  0  0  0  0  0  0
  1  2  1  0  0  0  0
  3  2  1  0  0  0  0
  4  3  2  0  0  0  0
  5  3  1  0  0  0  0
  6  5  2  0  0  0  0
  5  7  1  0  0  0  0
  8  6  1  0  0  0  0
  6  9  1  0  0  0  0
 10  7  2  0  0  0  0
  8 11  1  0  0  0  0
  8 12  2  0  0  0  0
  9 13  2  0  0  0  0
 12 10  1  0  0  0  0
 11 14  1  0  0  0  0
 11 15  2  0  0  0  0
 12 16  1  0  0  0  0
 14 13  1  0  0  0  0
 14 17  2  0  0  0  0
 15 18  1  0  0  0  0
 15 19  1  0  0  0  0
 16 18  2  0  0  0  0
 17 20  1  0  0  0  0
 19 20  2  0  0  0  0
M  END
>  <Name>
2-bromo-1-pyren-1-ylethanone

>  <IGC50>
5.387

>  <CAS>
80480-15-5

>  <SET>
ws

>  <Species>
Tetrahymena pyriformis

>  <Test duration>
48h

$$$$

  Mrv1808 07152009202D          

  8  7  0  0  0  0            999 V2000
    1.4025    1.1962    0.0000 C   0  0  0  0  0  0  0  0  0  0  0  0
    1.4025    2.0625    0.0000 C   0  0  0  0  0  0  0  0  0  0  0  0
    0.5775    1.1962    0.0000 C   0  0  0  0  0  0  0  0  0  0  0  0
    2.2275    1.1962    0.0000 C   0  0  0  0  0  0  0  0  0  0  0  0
    1.4025    0.4538    0.0000 C   0  0  0  0  0  0  0  0  0  0  0  0
    0.7013    0.0000    0.0000 C   0  0  0  0  0  0  0  0  0  0  0  0
    2.1038    0.0413    0.0000 O   0  0  0  0  0  0  0  0  0  0  0  0
    0.0000    0.4125    0.0000 Br  0  0  0  0  0  0  0  0  0  0  0  0
  1  2  1  0  0  0  0
  1  3  1  0  0  0  0
  1  4  1  0  0  0  0
  1  5  1  0  0  0  0
  5  6  1  0  0  0  0
  5  7  2  0  0  0  0
  8  6  1  0  0  0  0
M  END
>  <Name>
2-Butanone, 1-bromo-3,3-dimethyl-

>  <IGC50>
5.377

>  <CAS>
5469-26-1

>  <SET>
ws

>  <Species>
Tetrahymena pyriformis

>  <Test duration>
48h

$$$$

  Mrv1808 07152009202D          

 10 10  0  0  0  0            999 V2000
    2.4710   -2.8531    0.0000 O   0  0  0  0  0  0  0  0  0  0  0  0
    2.0591   -2.1414    0.0000 C   0  0  0  0  0  0  0  0  0  0  0  0
    1.2354   -2.1414    0.0000 C   0  0  0  0  0  0  0  0  0  0  0  0
    2.4710   -1.4266    0.0000 C   0  0  0  0  0  0  0  0  0  0  0  0
    0.8237   -1.4266    0.0000 C   0  0  0  0  0  0  0  0  0  0  0  0
    2.0591   -0.7116    0.0000 C   0  0  0  0  0  0  0  0  0  0  0  0
    3.2946   -1.4266    0.0000 Cl  0  0  0  0  0  0  0  0  0  0  0  0
    0.0000   -1.4266    0.0000 Cl  0  0  0  0  0  0  0  0  0  0  0  0
    1.2354   -0.7116    0.0000 C   0  0  0  0  0  0  0  0  0  0  0  0
    2.4710    0.0000    0.0000 Cl  0  0  0  0  0  0  0  0  0  0  0  0
  1  2  1  0  0  0  0
  2  3  2  0  0  0  0
  2  4  1  0  0  0  0
  3  5  1  0  0  0  0
  6  4  2  0  0  0  0
  4  7  1  0  0  0  0
  5  8  1  0  0  0  0
  5  9  2  0  0  0  0
  9  6  1  0  0  0  0
  6 10  1  0  0  0  0
M  END
>  <Name>
Phenol, 2,3,5-trichloro-

>  <IGC50>
5.37

>  <CAS>
933-78-8

>  <SET>
ws

>  <Species>
Tetrahymena pyriformis

>  <Test duration>
48h

$$$$

  Mrv1808 07152009202D          

 14 13  0  0  0  0            999 V2000
    7.8375    0.7150    0.0000 C   0  0  0  0  0  0  0  0  0  0  0  0
    8.2500    0.0000    0.0000 O   0  0  0  0  0  0  0  0  0  0  0  0
    7.0125    0.7150    0.0000 C   0  0  0  0  0  0  0  0  0  0  0  0
    6.1875    0.7150    0.0000 C   0  0  0  0  0  0  0  0  0  0  0  0
    5.3625    0.7150    0.0000 C   0  0  0  0  0  0  0  0  0  0  0  0
    4.9500    1.4300    0.0000 C   0  0  0  0  0  0  0  0  0  0  0  0
    4.1250    1.4300    0.0000 C   0  0  0  0  0  0  0  0  0  0  0  0
    3.7125    2.1450    0.0000 C   0  0  0  0  0  0  0  0  0  0  0  0
    2.8875    2.1450    0.0000 C   0  0  0  0  0  0  0  0  0  0  0  0
    2.4750    2.8600    0.0000 C   0  0  0  0  0  0  0  0  0  0  0  0
    1.6500    2.8600    0.0000 C   0  0  0  0  0  0  0  0  0  0  0  0
    1.2375    3.5750    0.0000 C   0  0  0  0  0  0  0  0  0  0  0  0
    0.4125    3.5750    0.0000 C   0  0  0  0  0  0  0  0  0  0  0  0
    0.0000    4.2900    0.0000 C   0  0  0  0  0  0  0  0  0  0  0  0
  1  2  1  0  0  0  0
  1  3  1  0  0  0  0
  3  4  3  0  0  0  0
  4  5  1  0  0  0  0
  5  6  1  0  0  0  0
  6  7  1  0  0  0  0
  7  8  1  0  0  0  0
  8  9  1  0  0  0  0
  9 10  1  0  0  0  0
 10 11  1  0  0  0  0
 11 12  1  0  0  0  0
 12 13  1  0  0  0  0
 13 14  1  0  0  0  0
M  END
>  <Name>
TIMTEC-BB SBB009040

>  <IGC50>
5.367

>  <CAS>
51887-25-3

>  <SET>
ws

>  <Species>
Tetrahymena pyriformis

>  <Test duration>
48h

$$$$

  Mrv1808 07152009202D          

 11 11  0  0  0  0            999 V2000
    2.1145    0.7336    0.0000 C   0  0  0  0  0  0  0  0  0  0  0  0
    1.2946    0.7336    0.0000 C   0  0  0  0  0  0  0  0  0  0  0  0
    2.5460    1.4241    0.0000 C   0  0  0  0  0  0  0  0  0  0  0  0
    2.5892    0.0000    0.0000 O   0  0  0  0  0  0  0  0  0  0  0  0
    0.8630    1.4241    0.0000 C   0  0  0  0  0  0  0  0  0  0  0  0
    0.8630    0.0000    0.0000 C   0  0  0  0  0  0  0  0  0  0  0  0
    2.1145    2.2008    0.0000 C   0  0  0  0  0  0  0  0  0  0  0  0
    3.4091    1.4241    0.0000 I   0  0  0  0  0  0  0  0  0  0  0  0
    1.2946    2.2008    0.0000 C   0  0  0  0  0  0  0  0  0  0  0  0
    0.0000    0.0000    0.0000 O   0  0  0  0  0  0  0  0  0  0  0  0
    0.9062    2.9344    0.0000 I   0  0  0  0  0  0  0  0  0  0  0  0
  2  1  2  0  0  0  0
  1  3  1  0  0  0  0
  1  4  1  0  0  0  0
  5  2  1  0  0  0  0
  2  6  1  0  0  0  0
  3  7  2  0  0  0  0
  3  8  1  0  0  0  0
  9  5  2  0  0  0  0
  6 10  2  0  0  0  0
  7  9  1  0  0  0  0
  9 11  1  0  0  0  0
M  END
>  <Name>
3,5-Diiodosalicylaldehyde

>  <IGC50>
5.34

>  <CAS>
2631-77-8

>  <SET>
ws

>  <Species>
Tetrahymena pyriformis

>  <Test duration>
48h

$$$$

  Mrv1808 07152009202D          

 12 11  0  0  0  0            999 V2000
    7.8715    0.0000    0.0000 C   0  0  0  0  0  0  0  0  0  0  0  0
    7.1552   -0.4093    0.0000 C   0  0  0  0  0  0  0  0  0  0  0  0
    6.4389    0.0000    0.0000 C   0  0  0  0  0  0  0  0  0  0  0  0
    5.7226   -0.4093    0.0000 C   0  0  0  0  0  0  0  0  0  0  0  0
    5.0062    0.0000    0.0000 C   0  0  0  0  0  0  0  0  0  0  0  0
    4.2900   -0.4093    0.0000 C   0  0  0  0  0  0  0  0  0  0  0  0
    3.5816    0.0000    0.0000 C   0  0  0  0  0  0  0  0  0  0  0  0
    2.8652   -0.4093    0.0000 C   0  0  0  0  0  0  0  0  0  0  0  0
    2.1489    0.0000    0.0000 C   0  0  0  0  0  0  0  0  0  0  0  0
    1.4326   -0.4093    0.0000 C   0  0  0  0  0  0  0  0  0  0  0  0
    0.7163    0.0000    0.0000 C   0  0  0  0  0  0  0  0  0  0  0  0
    0.0000   -0.4093    0.0000 N   0  0  0  0  0  0  0  0  0  0  0  0
  1  2  1  0  0  0  0
  2  3  1  0  0  0  0
  3  4  1  0  0  0  0
  4  5  1  0  0  0  0
  5  6  1  0  0  0  0
  6  7  1  0  0  0  0
  7  8  1  0  0  0  0
  8  9  1  0  0  0  0
  9 10  1  0  0  0  0
 10 11  1  0  0  0  0
 11 12  1  0  0  0  0
M  END
>  <Name>
1-Undecanamine

>  <IGC50>
5.328

>  <CAS>
7307-55-3

>  <SET>
ws

>  <Species>
Tetrahymena pyriformis

>  <Test duration>
48h

$$$$

  Mrv1808 07152009202D          

 11 11  0  0  0  0            999 V2000
    0.0418    1.4221    0.0000 O   0  0  0  0  0  0  0  0  0  0  0  0
    0.4183    0.7110    0.0000 N   0  0  0  0  0  0  0  0  0  0  0  0
    0.0000    0.0000    0.0000 O   0  0  0  0  0  0  0  0  0  0  0  0
    1.2966    0.7110    0.0000 C   0  0  0  0  0  0  0  0  0  0  0  0
    1.7149    1.4221    0.0000 C   0  0  0  0  0  0  0  0  0  0  0  0
    1.7149    0.0000    0.0000 C   0  0  0  0  0  0  0  0  0  0  0  0
    2.5514    1.4221    0.0000 C   0  0  0  0  0  0  0  0  0  0  0  0
    2.5514    0.0000    0.0000 C   0  0  0  0  0  0  0  0  0  0  0  0
    2.9697    0.7110    0.0000 C   0  0  0  0  0  0  0  0  0  0  0  0
    3.8062    0.7110    0.0000 C   0  0  0  0  0  0  0  0  0  0  0  0
    4.2244    1.4221    0.0000 Br  0  0  0  0  0  0  0  0  0  0  0  0
  1  2  2  0  0  0  0
  2  3  2  0  0  0  0
  2  4  1  0  0  0  0
  5  4  2  0  0  0  0
  4  6  1  0  0  0  0
  7  5  1  0  0  0  0
  6  8  2  0  0  0  0
  9  7  2  0  0  0  0
  8  9  1  0  0  0  0
  9 10  1  0  0  0  0
 10 11  1  0  0  0  0
M  END
>  <Name>
Benzene, 1-(bromomethyl)-4-nitro-

>  <IGC50>
5.31

>  <CAS>
100-11-8

>  <SET>
ws

>  <Species>
Tetrahymena pyriformis

>  <Test duration>
48h

$$$$

  Mrv1808 07152009202D          

 13 13  0  0  0  0            999 V2000
    0.8365    0.0000    0.0000 O   0  0  0  0  0  0  0  0  0  0  0  0
    0.8365    0.8365    0.0000 N   0  0  0  0  0  0  0  0  0  0  0  0
    0.0000    0.8365    0.0000 O   0  0  0  0  0  0  0  0  0  0  0  0
    1.5893    1.2548    0.0000 C   0  0  0  0  0  0  0  0  0  0  0  0
    2.3004    0.8365    0.0000 C   0  0  0  0  0  0  0  0  0  0  0  0
    1.5893    2.0912    0.0000 C   0  0  0  0  0  0  0  0  0  0  0  0
    3.0114    1.2548    0.0000 C   0  0  0  0  0  0  0  0  0  0  0  0
    2.3004    2.5095    0.0000 C   0  0  0  0  0  0  0  0  0  0  0  0
    3.7642    0.8365    0.0000 N   0  0  0  0  0  0  0  0  0  0  0  0
    3.0114    2.0912    0.0000 C   0  0  0  0  0  0  0  0  0  0  0  0
    3.7642    0.0000    0.0000 O   0  0  0  0  0  0  0  0  0  0  0  0
    4.6007    0.8365    0.0000 O   0  0  0  0  0  0  0  0  0  0  0  0
    3.7642    2.5095    0.0000 Br  0  0  0  0  0  0  0  0  0  0  0  0
  1  2  2  0  0  0  0
  2  3  2  0  0  0  0
  2  4  1  0  0  0  0
  5  4  2  0  0  0  0
  4  6  1  0  0  0  0
  7  5  1  0  0  0  0
  6  8  2  0  0  0  0
  9  7  1  0  0  0  0
 10  7  2  0  0  0  0
  8 10  1  0  0  0  0
 11  9  2  0  0  0  0
  9 12  2  0  0  0  0
 13 10  1  0  0  0  0
M  END
>  <Name>
Benzene, 1-bromo-2,4-dinitro-

>  <IGC50>
5.31

>  <CAS>
584-48-5

>  <SET>
ws

>  <Species>
Tetrahymena pyriformis

>  <Test duration>
48h

$$$$

  Mrv1808 07152009203D          

 14 15  0  0  0  0            999 V2000
   -5.3651    0.0006    0.0016 Br  0  0  0  0  0  0  0  0  0  0  0  0
   -3.4754   -0.0003   -0.0009 C   0  0  0  0  0  0  0  0  0  0  0  0
   -2.7779    1.1665   -0.3137 C   0  0  0  0  0  0  0  0  0  0  0  0
   -2.7779   -1.1669    0.3123 C   0  0  0  0  0  0  0  0  0  0  0  0
   -1.3830    1.1667   -0.3135 C   0  0  0  0  0  0  0  0  0  0  0  0
   -1.3830   -1.1668    0.3126 C   0  0  0  0  0  0  0  0  0  0  0  0
   -0.6856    0.0000   -0.0003 C   0  0  0  0  0  0  0  0  0  0  0  0
    0.7612    0.0001    0.0006 C   0  0  0  0  0  0  0  0  0  0  0  0
    1.4586    1.1667    0.3136 C   0  0  0  0  0  0  0  0  0  0  0  0
    1.4586   -1.1667   -0.3125 C   0  0  0  0  0  0  0  0  0  0  0  0
    2.8535    1.1667    0.3133 C   0  0  0  0  0  0  0  0  0  0  0  0
    2.8535   -1.1667   -0.3126 C   0  0  0  0  0  0  0  0  0  0  0  0
    3.5509    0.0000    0.0003 C   0  0  0  0  0  0  0  0  0  0  0  0
    4.9118    0.0001   -0.0010 O   0  0  0  0  0  0  0  0  0  0  0  0
  1  2  1  0  0  0  0
  3  2  2  0  0  0  0
  4  2  1  0  0  0  0
  5  3  1  0  0  0  0
  6  4  2  0  0  0  0
  7  5  2  0  0  0  0
  7  6  1  0  0  0  0
  8  7  1  0  0  0  0
  8  9  2  0  0  0  0
  8 10  1  0  0  0  0
  9 11  1  0  0  0  0
 10 12  2  0  0  0  0
 11 13  2  0  0  0  0
 12 13  1  0  0  0  0
 14 13  1  0  0  0  0
M  END
>  <Name>
4-(4-bromophenyl)phenol

>  <IGC50>
5.31

>  <CAS>
29558-77-8

>  <SET>
ws

>  <Species>
Tetrahymena pyriformis

>  <Test duration>
48h

$$$$

  Mrv1808 07152009202D          

 15 17  0  0  0  0            999 V2000
    3.8546   -2.4631    0.0000 C   0  0  0  0  0  0  0  0  0  0  0  0
    3.3689   -3.1299    0.0000 C   0  0  0  0  0  0  0  0  0  0  0  0
    3.5192   -1.7076    0.0000 C   0  0  0  0  0  0  0  0  0  0  0  0
    2.5479   -3.0451    0.0000 C   0  0  0  0  0  0  0  0  0  0  0  0
    2.6982   -1.6228    0.0000 C   0  0  0  0  0  0  0  0  0  0  0  0
    2.2125   -2.2897    0.0000 C   0  0  0  0  0  0  0  0  0  0  0  0
    2.2125   -0.9559    0.0000 N   0  0  0  0  0  0  0  0  0  0  0  0
    1.4301   -2.0352    0.0000 C   0  0  0  0  0  0  0  0  0  0  0  0
    1.4301   -1.2104    0.0000 C   0  0  0  0  0  0  0  0  0  0  0  0
    2.4669   -0.1696    0.0000 C   0  0  0  0  0  0  0  0  0  0  0  0
    0.7131   -2.4477    0.0000 C   0  0  0  0  0  0  0  0  0  0  0  0
    0.7131   -0.7979    0.0000 C   0  0  0  0  0  0  0  0  0  0  0  0
    3.2764    0.0000    0.0000 C   0  0  0  0  0  0  0  0  0  0  0  0
    0.0000   -2.0352    0.0000 C   0  0  0  0  0  0  0  0  0  0  0  0
    0.0000   -1.2104    0.0000 C   0  0  0  0  0  0  0  0  0  0  0  0
  1  2  2  0  0  0  0
  1  3  1  0  0  0  0
  2  4  1  0  0  0  0
  3  5  2  0  0  0  0
  4  6  2  0  0  0  0
  6  5  1  0  0  0  0
  5  7  1  0  0  0  0
  6  8  1  0  0  0  0
  7  9  1  0  0  0  0
  7 10  1  0  0  0  0
  8 11  2  0  0  0  0
  8  9  1  0  0  0  0
  9 12  2  0  0  0  0
 10 13  2  0  0  0  0
 11 14  1  0  0  0  0
 12 15  1  0  0  0  0
 14 15  2  0  0  0  0
M  END
>  <Name>
9H-Carbazole, 9-ethenyl-

>  <IGC50>
5.24

>  <CAS>
1484-13-5

>  <SET>
ws

>  <Species>
Tetrahymena pyriformis

>  <Test duration>
48h

$$$$

  Mrv1808 07152009203D          

 14 13  0  0  0  0            999 V2000
    1.1311    1.7809   -0.4565 O   0  0  0  0  0  0  0  0  0  0  0  0
    1.2028    0.4848    0.1316 C   0  0  1  0  0  0  0  0  0  0  0  0
   -0.0656   -0.2913   -0.2464 C   0  0  0  0  0  0  0  0  0  0  0  0
    2.4551   -0.2469   -0.3700 C   0  0  0  0  0  0  0  0  0  0  0  0
   -1.3423    0.4291    0.2051 C   0  0  0  0  0  0  0  0  0  0  0  0
    3.7320    0.2041    0.3477 C   0  0  0  0  0  0  0  0  0  0  0  0
   -2.5893   -0.3865   -0.1461 C   0  0  0  0  0  0  0  0  0  0  0  0
    4.9622   -0.5203   -0.2035 C   0  0  0  0  0  0  0  0  0  0  0  0
   -3.9008    0.2971    0.2546 C   0  0  0  0  0  0  0  0  0  0  0  0
    6.2421   -0.0442    0.4833 C   0  0  0  0  0  0  0  0  0  0  0  0
   -5.1443   -0.5320   -0.0779 C   0  0  0  0  0  0  0  0  0  0  0  0
    7.4701   -0.7376   -0.0847 C   0  0  0  0  0  0  0  0  0  0  0  0
   -6.4557    0.1835    0.2581 C   0  0  0  0  0  0  0  0  0  0  0  0
   -7.6972   -0.6207   -0.0954 C   0  0  0  0  0  0  0  0  0  0  0  0
  1  2  1  0  0  0  0
  2  3  1  0  0  0  0
  2  4  1  0  0  0  0
  3  5  1  0  0  0  0
  4  6  1  0  0  0  0
  5  7  1  0  0  0  0
  6  8  1  0  0  0  0
  7  9  1  0  0  0  0
  8 10  1  0  0  0  0
  9 11  1  0  0  0  0
 10 12  1  0  0  0  0
 11 13  1  0  0  0  0
 13 14  1  0  0  0  0
M  END
>  <Name>
tridecan-6-ol

>  <IGC50>
5.24

>  <CAS>
5770-03-6

>  <SET>
ws

>  <Species>
Tetrahymena pyriformis

>  <Test duration>
48h

$$$$

  Mrv1808 07152009203D          

 10 10  0  0  0  0            999 V2000
    0.0072   -2.7513   -1.7979 O   0  0  0  0  0  0  0  0  0  0  0  0
   -0.1962   -2.0944   -0.6260 C   0  0  0  0  0  0  0  0  0  0  0  0
    0.4148   -1.8201   -2.6998 C   0  0  0  0  0  0  0  0  0  0  0  0
   -0.6237   -2.8868    0.4411 N   0  3  0  0  0  0  0  0  0  0  0  0
    0.0772   -0.7540   -0.7697 C   0  0  0  0  0  0  0  0  0  0  0  0
    0.4741   -0.5759   -2.1165 C   0  0  0  0  0  0  0  0  0  0  0  0
    0.6986   -2.2544   -4.0250 C   0  0  0  0  0  0  0  0  0  0  0  0
   -0.8379   -2.3603    1.5729 O   0  5  0  0  0  0  0  0  0  0  0  0
   -0.7967   -4.1304    0.2751 O   0  0  0  0  0  0  0  0  0  0  0  0
    1.0805   -1.5000   -4.9476 O   0  0  0  0  0  0  0  0  0  0  0  0
  1  2  1  0  0  0  0
  1  3  1  0  0  0  0
  4  2  1  0  0  0  0
  2  5  2  0  0  0  0
  3  6  2  0  0  0  0
  3  7  1  0  0  0  0
  8  4  1  0  0  0  0
  9  4  2  0  0  0  0
  5  6  1  0  0  0  0
 10  7  2  0  0  0  0
M  CHG  2   4   1   8  -1
M  END
>  <Name>
5-Furancarboxaldehyde, 5-nitro- (9CI)

>  <IGC50>
5.23

>  <CAS>
698-63-5

>  <SET>
ws

>  <Species>
Tetrahymena pyriformis

>  <Test duration>
48h

$$$$

  Mrv1808 07152009202D          

  4  3  0  0  0  0            999 V2000
    0.0000    0.0000    0.0000 Br  0  0  0  0  0  0  0  0  0  0  0  0
    0.4125   -0.7136    0.0000 C   0  0  0  0  0  0  0  0  0  0  0  0
    1.2375   -0.7136    0.0000 C   0  0  0  0  0  0  0  0  0  0  0  0
    2.0625   -0.7136    0.0000 N   0  0  0  0  0  0  0  0  0  0  0  0
  1  2  1  0  0  0  0
  2  3  1  0  0  0  0
  3  4  3  0  0  0  0
M  END
>  <Name>
Acetonitrile, bromo-

>  <IGC50>
5.229

>  <CAS>
590-17-0

>  <SET>
ws

>  <Species>
Tetrahymena pyriformis

>  <Test duration>
48h

$$$$

  Mrv1808 07152009202D          

 11 11  0  0  0  0            999 V2000
    0.8264    0.0000    0.0000 Cl  0  0  0  0  0  0  0  0  0  0  0  0
    1.2382   -0.7148    0.0000 C   0  0  0  0  0  0  0  0  0  0  0  0
    2.0645   -0.7148    0.0000 C   0  0  0  0  0  0  0  0  0  0  0  0
    0.8264   -1.4297    0.0000 C   0  0  0  0  0  0  0  0  0  0  0  0
    2.4763    0.0000    0.0000 Cl  0  0  0  0  0  0  0  0  0  0  0  0
    2.4763   -1.4297    0.0000 C   0  0  0  0  0  0  0  0  0  0  0  0
    1.2382   -2.1446    0.0000 C   0  0  0  0  0  0  0  0  0  0  0  0
    0.0000   -1.4297    0.0000 O   0  0  0  0  0  0  0  0  0  0  0  0
    2.0645   -2.1446    0.0000 C   0  0  0  0  0  0  0  0  0  0  0  0
    0.8264   -2.8595    0.0000 Cl  0  0  0  0  0  0  0  0  0  0  0  0
    2.4763   -2.8595    0.0000 Cl  0  0  0  0  0  0  0  0  0  0  0  0
  1  2  1  0  0  0  0
  2  3  2  0  0  0  0
  2  4  1  0  0  0  0
  3  5  1  0  0  0  0
  3  6  1  0  0  0  0
  7  4  2  0  0  0  0
  4  8  1  0  0  0  0
  6  9  2  0  0  0  0
  9  7  1  0  0  0  0
  7 10  1  0  0  0  0
  9 11  1  0  0  0  0
M  END
>  <Name>
Phenol, 2,3,5,6-tetrachloro-

>  <IGC50>
5.22

>  <CAS>
935-95-5

>  <SET>
ws

>  <Species>
Tetrahymena pyriformis

>  <Test duration>
48h

$$$$

  Mrv1808 07152009202D          

  9  9  0  0  0  0            999 V2000
   -0.2956    0.2898    0.0000 C   0  0  0  0  0  0  0  0  0  0  0  0
   -0.2956    1.1148    0.0000 O   0  0  0  0  0  0  0  0  0  0  0  0
    0.4189   -0.1227    0.0000 C   0  0  0  0  0  0  0  0  0  0  0  0
   -1.0101   -0.1227    0.0000 C   0  0  0  0  0  0  0  0  0  0  0  0
    0.5051   -0.9432    0.0000 C   0  0  0  0  0  0  0  0  0  0  0  0
    1.1725    0.2128    0.0000 C   0  0  0  0  0  0  0  0  0  0  0  0
   -1.7246    0.2898    0.0000 Br  0  0  0  0  0  0  0  0  0  0  0  0
    1.3121   -1.1148    0.0000 S   0  0  0  0  0  0  0  0  0  0  0  0
    1.7246   -0.4003    0.0000 C   0  0  0  0  0  0  0  0  0  0  0  0
  1  2  2  0  0  0  0
  1  3  1  0  0  0  0
  1  4  1  0  0  0  0
  5  3  2  0  0  0  0
  3  6  1  0  0  0  0
  4  7  1  0  0  0  0
  5  8  1  0  0  0  0
  6  9  2  0  0  0  0
  9  8  1  0  0  0  0
M  END
>  <Name>
Ketone,bromomethyl 3-thienyl (7CI,8CI)

>  <IGC50>
5.22

>  <CAS>
1468-82-2

>  <SET>
ws

>  <Species>
Tetrahymena pyriformis

>  <Test duration>
48h

$$$$

  Mrv1808 07152009203D          

 12 11  0  0  0  0            999 V2000
    0.0000   -0.6504    2.2466 Br  0  0  0  0  0  0  0  0  0  0  0  0
    0.0000   -0.3391    0.3255 C   0  0  1  0  0  0  0  0  0  0  0  0
   -1.2824    0.3964    0.0314 C   0  0  0  0  0  0  0  0  0  0  0  0
    1.2824    0.3963    0.0311 C   0  0  0  0  0  0  0  0  0  0  0  0
   -2.2881   -0.5060   -0.1802 O   0  0  0  0  0  0  0  0  0  0  0  0
   -1.4028    1.6139   -0.0037 O   0  0  0  0  0  0  0  0  0  0  0  0
    2.2879   -0.5062   -0.1802 O   0  0  0  0  0  0  0  0  0  0  0  0
    1.4030    1.6138   -0.0039 O   0  0  0  0  0  0  0  0  0  0  0  0
   -3.5733    0.0564   -0.4630 C   0  0  0  0  0  0  0  0  0  0  0  0
    3.5733    0.0564   -0.4630 C   0  0  0  0  0  0  0  0  0  0  0  0
   -4.5679   -1.0658   -0.6704 C   0  0  0  0  0  0  0  0  0  0  0  0
    4.5679   -1.0657   -0.6703 C   0  0  0  0  0  0  0  0  0  0  0  0
  1  2  1  0  0  0  0
  2  3  1  0  0  0  0
  2  4  1  0  0  0  0
  5  3  1  0  0  0  0
  6  3  2  0  0  0  0
  7  4  1  0  0  0  0
  8  4  2  0  0  0  0
  5  9  1  0  0  0  0
  7 10  1  0  0  0  0
  9 11  1  0  0  0  0
 10 12  1  0  0  0  0
M  END
>  <Name>
diethyl 2-bromopropanedioate

>  <IGC50>
5.215

>  <CAS>
685-87-0

>  <SET>
ws

>  <Species>
Tetrahymena pyriformis

>  <Test duration>
48h

$$$$

  Mrv1808 07152009202D          

 15 16  0  0  0  0            999 V2000
    2.8875    0.7012    0.0000 C   0  0  0  0  0  0  0  0  0  0  0  0
    3.7125    0.7012    0.0000 C   0  0  0  0  0  0  0  0  0  0  0  0
    2.5162    1.4437    0.0000 C   0  0  0  0  0  0  0  0  0  0  0  0
    4.0837    1.4437    0.0000 C   0  0  0  0  0  0  0  0  0  0  0  0
    2.8875    2.1450    0.0000 C   0  0  0  0  0  0  0  0  0  0  0  0
    1.6912    1.4437    0.0000 C   0  0  0  0  0  0  0  0  0  0  0  0
    3.7125    2.1450    0.0000 C   0  0  0  0  0  0  0  0  0  0  0  0
    1.2787    2.1450    0.0000 C   0  0  0  0  0  0  0  0  0  0  0  0
    1.2787    0.7012    0.0000 C   0  0  0  0  0  0  0  0  0  0  0  0
    0.4537    2.1450    0.0000 C   0  0  0  0  0  0  0  0  0  0  0  0
    0.4537    0.7012    0.0000 C   0  0  0  0  0  0  0  0  0  0  0  0
    1.6912    0.0000    0.0000 O   0  0  0  0  0  0  0  0  0  0  0  0
    0.0412    1.4437    0.0000 C   0  0  0  0  0  0  0  0  0  0  0  0
    0.0412    2.8462    0.0000 Br  0  0  0  0  0  0  0  0  0  0  0  0
    0.0000    0.0000    0.0000 Br  0  0  0  0  0  0  0  0  0  0  0  0
  1  2  2  0  0  0  0
  3  1  1  0  0  0  0
  2  4  1  0  0  0  0
  5  3  2  0  0  0  0
  3  6  1  0  0  0  0
  4  7  2  0  0  0  0
  7  5  1  0  0  0  0
  6  8  2  0  0  0  0
  9  6  1  0  0  0  0
  8 10  1  0  0  0  0
 11  9  2  0  0  0  0
  9 12  1  0  0  0  0
 10 13  2  0  0  0  0
 10 14  1  0  0  0  0
 13 11  1  0  0  0  0
 11 15  1  0  0  0  0
M  END
>  <Name>
Phenol,2,4-dibromo-6-phenyl- (7CI)

>  <IGC50>
5.21

>  <CAS>
55815-20-8

>  <SET>
ws

>  <Species>
Tetrahymena pyriformis

>  <Test duration>
48h

$$$$

  Mrv1808 07152009203D          

  9  8  0  0  0  0            999 V2000
   -0.8150    0.8244   -0.4754 C   0  0  0  0  0  0  0  0  0  0  0  0
    0.0583   -0.2316    0.1549 C   0  0  2  0  0  0  0  0  0  0  0  0
   -0.6534    1.4017   -1.5313 O   0  0  0  0  0  0  0  0  0  0  0  0
   -1.9029    1.0885    0.2985 O   0  0  0  0  0  0  0  0  0  0  0  0
    1.3152   -0.5609   -0.5692 C   0  0  0  0  0  0  0  0  0  0  0  0
   -1.0459   -1.8380    0.0313 Br  0  0  0  0  0  0  0  0  0  0  0  0
   -2.8463    2.0588   -0.1657 C   0  0  0  0  0  0  0  0  0  0  0  0
    2.6834    0.5875    0.2254 Br  0  0  0  0  0  0  0  0  0  0  0  0
   -3.9334    2.1337    0.8884 C   0  0  0  0  0  0  0  0  0  0  0  0
  1  2  1  0  0  0  0
  1  3  2  0  0  0  0
  1  4  1  0  0  0  0
  2  5  1  0  0  0  0
  2  6  1  0  0  0  0
  4  7  1  0  0  0  0
  5  8  1  0  0  0  0
  7  9  1  0  0  0  0
M  END
>  <Name>
Propionic acid, 2,3-dibromo-, ethyl ester (6CI,7CI,8CI)

>  <IGC50>
5.208

>  <CAS>
3674-13-3

>  <SET>
ws

>  <Species>
Tetrahymena pyriformis

>  <Test duration>
48h

$$$$

  Mrv1808 07152009202D          

 14 15  0  0  0  0            999 V2000
    2.1750    3.3461    0.0000 O   0  0  0  0  0  0  0  0  0  0  0  0
    2.1750    2.5096    0.0000 C   0  0  0  0  0  0  0  0  0  0  0  0
    1.4221    2.0913    0.0000 C   0  0  0  0  0  0  0  0  0  0  0  0
    2.8860    2.0913    0.0000 C   0  0  0  0  0  0  0  0  0  0  0  0
    1.4221    1.2548    0.0000 C   0  0  0  0  0  0  0  0  0  0  0  0
    0.7110    2.5096    0.0000 C   0  0  0  0  0  0  0  0  0  0  0  0
    3.5971    2.5096    0.0000 C   0  0  0  0  0  0  0  0  0  0  0  0
    2.8860    1.2548    0.0000 C   0  0  0  0  0  0  0  0  0  0  0  0
    2.1750    0.8365    0.0000 C   0  0  0  0  0  0  0  0  0  0  0  0
    0.7110    0.8365    0.0000 C   0  0  0  0  0  0  0  0  0  0  0  0
    0.0000    2.0913    0.0000 C   0  0  0  0  0  0  0  0  0  0  0  0
    2.1750    0.0000    0.0000 O   0  0  0  0  0  0  0  0  0  0  0  0
    0.7110    0.0000    0.0000 O   0  0  0  0  0  0  0  0  0  0  0  0
    0.0000    1.2548    0.0000 C   0  0  0  0  0  0  0  0  0  0  0  0
  1  2  2  0  0  0  0
  3  2  1  0  0  0  0
  2  4  1  0  0  0  0
  3  5  2  0  0  0  0
  6  3  1  0  0  0  0
  4  7  1  0  0  0  0
  4  8  2  0  0  0  0
  9  5  1  0  0  0  0
  5 10  1  0  0  0  0
 11  6  2  0  0  0  0
  8  9  1  0  0  0  0
  9 12  2  0  0  0  0
 10 13  1  0  0  0  0
 10 14  2  0  0  0  0
 14 11  1  0  0  0  0
M  END
>  <Name>
1,4-Naphthalenedione, 5-hydroxy-2-methyl- (9CI)

>  <IGC50>
5.2

>  <CAS>
481-42-5

>  <SET>
ws

>  <Species>
Tetrahymena pyriformis

>  <Test duration>
48h

$$$$

  Mrv1808 07152009203D          

 10 10  0  0  0  0            999 V2000
    2.0331   -0.6880   -0.0006 O   0  0  0  0  0  0  0  0  0  0  0  0
    0.7734   -0.1695    0.0009 C   0  0  0  0  0  0  0  0  0  0  0  0
    2.1489   -2.1096   -0.0001 C   0  0  0  0  0  0  0  0  0  0  0  0
    0.5742    1.2111    0.0005 C   0  0  0  0  0  0  0  0  0  0  0  0
   -0.3225   -1.0323    0.0008 C   0  0  0  0  0  0  0  0  0  0  0  0
    1.6360    2.0644   -0.0010 O   0  0  0  0  0  0  0  0  0  0  0  0
   -0.7211    1.7289    0.0002 C   0  0  0  0  0  0  0  0  0  0  0  0
   -1.6178   -0.5146    0.0003 C   0  0  0  0  0  0  0  0  0  0  0  0
   -1.8170    0.8660    0.0000 C   0  0  0  0  0  0  0  0  0  0  0  0
   -2.6872   -1.3565   -0.0011 O   0  0  0  0  0  0  0  0  0  0  0  0
  1  2  1  0  0  0  0
  1  3  1  0  0  0  0
  2  4  2  0  0  0  0
  2  5  1  0  0  0  0
  6  4  1  0  0  0  0
  4  7  1  0  0  0  0
  5  8  2  0  0  0  0
  7  9  2  0  0  0  0
 10  8  1  0  0  0  0
  8  9  1  0  0  0  0
M  END
>  <Name>
2-methoxybenzene-1,4-diol

>  <IGC50>
5.2

>  <CAS>
824-46-4

>  <SET>
ws

>  <Species>
Tetrahymena pyriformis

>  <Test duration>
48h

$$$$

  Mrv1808 07152009202D          

 15 15  0  0  0  0            999 V2000
    3.5676    0.0000    0.0000 Cl  0  0  0  0  0  0  0  0  0  0  0  0
    2.8567   -0.4112    0.0000 C   0  0  0  0  0  0  0  0  0  0  0  0
    2.8567   -1.2335    0.0000 C   0  0  0  0  0  0  0  0  0  0  0  0
    2.1414    0.0000    0.0000 C   0  0  0  0  0  0  0  0  0  0  0  0
    3.5676   -1.6489    0.0000 N   0  3  0  0  0  0  0  0  0  0  0  0
    2.1414   -1.6489    0.0000 C   0  0  0  0  0  0  0  0  0  0  0  0
    1.4262   -0.4112    0.0000 C   0  0  0  0  0  0  0  0  0  0  0  0
    4.2828   -1.2335    0.0000 O   0  5  0  0  0  0  0  0  0  0  0  0
    3.5676   -2.4712    0.0000 O   0  0  0  0  0  0  0  0  0  0  0  0
    2.1414   -2.4712    0.0000 Cl  0  0  0  0  0  0  0  0  0  0  0  0
    1.4262   -1.2335    0.0000 C   0  0  0  0  0  0  0  0  0  0  0  0
    0.7152    0.0000    0.0000 Cl  0  0  0  0  0  0  0  0  0  0  0  0
    0.7152   -1.6489    0.0000 N   0  3  0  0  0  0  0  0  0  0  0  0
    0.0000   -1.2335    0.0000 O   0  5  0  0  0  0  0  0  0  0  0  0
    0.7152   -2.4712    0.0000 O   0  0  0  0  0  0  0  0  0  0  0  0
  1  2  1  0  0  0  0
  2  3  2  0  0  0  0
  2  4  1  0  0  0  0
  3  5  1  0  0  0  0
  3  6  1  0  0  0  0
  7  4  2  0  0  0  0
  5  8  1  0  0  0  0
  5  9  2  0  0  0  0
  6 10  1  0  0  0  0
  6 11  2  0  0  0  0
 11  7  1  0  0  0  0
  7 12  1  0  0  0  0
 11 13  1  0  0  0  0
 13 14  1  0  0  0  0
 13 15  2  0  0  0  0
M  CHG  4   5   1   8  -1  13   1  14  -1
M  END
>  <Name>
Benzene, 1,3,5-trichloro-2,4-dinitro-

>  <IGC50>
5.19

>  <CAS>
6284-83-9

>  <SET>
ws

>  <Species>
Tetrahymena pyriformis

>  <Test duration>
48h

$$$$

  Mrv1808 07152009203D          

 14 13  0  0  0  0            999 V2000
   -6.0580    1.3037    0.4394 O   0  0  0  0  0  0  0  0  0  0  0  0
   -5.9054    0.1000   -0.3074 C   0  0  1  0  0  0  0  0  0  0  0  0
   -4.5865   -0.5745    0.0871 C   0  0  0  0  0  0  0  0  0  0  0  0
   -7.1270   -0.7837   -0.0948 C   0  0  0  0  0  0  0  0  0  0  0  0
   -3.3374    0.2703   -0.1901 C   0  0  0  0  0  0  0  0  0  0  0  0
   -2.0612   -0.4993    0.1597 C   0  0  0  0  0  0  0  0  0  0  0  0
   -0.8112    0.3276   -0.1464 C   0  0  0  0  0  0  0  0  0  0  0  0
    0.4653   -0.4545    0.1720 C   0  0  0  0  0  0  0  0  0  0  0  0
    1.7140    0.3628   -0.1664 C   0  0  0  0  0  0  0  0  0  0  0  0
    3.0229   -0.3847    0.1041 C   0  0  0  0  0  0  0  0  0  0  0  0
    4.2719    0.4577   -0.1643 C   0  0  0  0  0  0  0  0  0  0  0  0
    5.5479   -0.3417    0.1099 C   0  0  0  0  0  0  0  0  0  0  0  0
    6.7972    0.5084   -0.1208 C   0  0  0  0  0  0  0  0  0  0  0  0
    8.0675   -0.2921    0.1179 C   0  0  0  0  0  0  0  0  0  0  0  0
  1  2  1  0  0  0  0
  3  2  1  0  0  0  0
  2  4  1  0  0  0  0
  5  3  1  0  0  0  0
  6  5  1  0  0  0  0
  7  6  1  0  0  0  0
  8  7  1  0  0  0  0
  8  9  1  0  0  0  0
  9 10  1  0  0  0  0
 10 11  1  0  0  0  0
 11 12  1  0  0  0  0
 12 13  1  0  0  0  0
 13 14  1  0  0  0  0
M  END
>  <Name>
tridecan-2-ol

>  <IGC50>
5.17

>  <CAS>
1653-31-2

>  <SET>
ws

>  <Species>
Tetrahymena pyriformis

>  <Test duration>
48h

$$$$

  Mrv1808 07152009202D          

 11 12  0  0  0  0            999 V2000
    0.0000    1.2787    0.0000 C   0  0  0  0  0  0  0  0  0  0  0  0
    0.0000    0.4125    0.0000 C   0  0  0  0  0  0  0  0  0  0  0  0
    0.7012    1.6912    0.0000 C   0  0  0  0  0  0  0  0  0  0  0  0
    0.7012    0.0000    0.0000 C   0  0  0  0  0  0  0  0  0  0  0  0
    1.4024    1.2787    0.0000 C   0  0  0  0  0  0  0  0  0  0  0  0
    1.4024    0.4537    0.0000 C   0  0  0  0  0  0  0  0  0  0  0  0
    2.1449    1.6912    0.0000 C   0  0  0  0  0  0  0  0  0  0  0  0
    2.1449    0.0413    0.0000 C   0  0  0  0  0  0  0  0  0  0  0  0
    2.8461    1.2787    0.0000 C   0  0  0  0  0  0  0  0  0  0  0  0
    2.1449    2.5162    0.0000 I   0  0  0  0  0  0  0  0  0  0  0  0
    2.8461    0.4537    0.0000 C   0  0  0  0  0  0  0  0  0  0  0  0
  2  1  2  0  0  0  0
  1  3  1  0  0  0  0
  4  2  1  0  0  0  0
  3  5  2  0  0  0  0
  6  4  2  0  0  0  0
  6  5  1  0  0  0  0
  5  7  1  0  0  0  0
  8  6  1  0  0  0  0
  7  9  2  0  0  0  0
  7 10  1  0  0  0  0
 11  8  2  0  0  0  0
  9 11  1  0  0  0  0
M  END
>  <Name>
1-iodonaphthalene

>  <IGC50>
5.17

>  <CAS>
90-14-2

>  <SET>
ws

>  <Species>
Tetrahymena pyriformis

>  <Test duration>
48h

$$$$

  Mrv1808 07152009202D          

 10  9  0  0  0  0            999 V2000
    0.0000    0.7530    0.0000 C   0  0  0  0  0  0  0  0  0  0  0  0
    0.7111    1.1712    0.0000 C   0  0  0  0  0  0  0  0  0  0  0  0
    1.4223    0.7530    0.0000 C   0  0  0  0  0  0  0  0  0  0  0  0
    0.7111    2.0079    0.0000 Br  0  0  0  0  0  0  0  0  0  0  0  0
    2.1751    1.1712    0.0000 C   0  0  0  0  0  0  0  0  0  0  0  0
    1.4223    0.0000    0.0000 O   0  0  0  0  0  0  0  0  0  0  0  0
    2.8863    0.7530    0.0000 C   0  0  0  0  0  0  0  0  0  0  0  0
    2.1751    2.0079    0.0000 O   0  0  0  0  0  0  0  0  0  0  0  0
    3.5974    1.1712    0.0000 C   0  0  0  0  0  0  0  0  0  0  0  0
    2.8863    0.0000    0.0000 Br  0  0  0  0  0  0  0  0  0  0  0  0
  1  2  1  0  0  0  0
  2  3  1  0  0  0  0
  2  4  1  0  0  0  0
  3  5  1  0  0  0  0
  3  6  2  0  0  0  0
  5  7  1  0  0  0  0
  5  8  2  0  0  0  0
  7  9  1  0  0  0  0
  7 10  1  0  0  0  0
M  END
>  <Name>
3,4-Hexanedione, 2,5-dibromo-

>  <IGC50>
5.168

>  <CAS>
39081-91-9

>  <SET>
ws

>  <Species>
Tetrahymena pyriformis

>  <Test duration>
48h

$$$$

  Mrv1808 07152009202D          

 13 12  0  0  0  0            999 V2000
    0.7303    0.0000    0.0000 C   0  0  0  0  0  0  0  0  0  0  0  0
    1.4518   -0.3999    0.0000 C   0  0  0  0  0  0  0  0  0  0  0  0
    0.0000   -0.3999    0.0000 O   0  0  0  0  0  0  0  0  0  0  0  0
    2.1821    0.0000    0.0000 C   0  0  0  0  0  0  0  0  0  0  0  0
    2.8949   -0.3999    0.0000 C   0  0  0  0  0  0  0  0  0  0  0  0
    3.6252    0.0000    0.0000 C   0  0  0  0  0  0  0  0  0  0  0  0
    4.3467   -0.3999    0.0000 C   0  0  0  0  0  0  0  0  0  0  0  0
    5.0683    0.0000    0.0000 C   0  0  0  0  0  0  0  0  0  0  0  0
    5.7986   -0.3999    0.0000 C   0  0  0  0  0  0  0  0  0  0  0  0
    6.5114    0.0000    0.0000 C   0  0  0  0  0  0  0  0  0  0  0  0
    7.2417   -0.3999    0.0000 C   0  0  0  0  0  0  0  0  0  0  0  0
    7.9632    0.0000    0.0000 C   0  0  0  0  0  0  0  0  0  0  0  0
    8.6935   -0.3999    0.0000 C   0  0  0  0  0  0  0  0  0  0  0  0
  1  2  1  0  0  0  0
  1  3  1  0  0  0  0
  2  4  1  0  0  0  0
  4  5  1  0  0  0  0
  5  6  1  0  0  0  0
  6  7  1  0  0  0  0
  7  8  1  0  0  0  0
  8  9  1  0  0  0  0
  9 10  1  0  0  0  0
 10 11  1  0  0  0  0
 11 12  1  0  0  0  0
 12 13  1  0  0  0  0
M  END
>  <Name>
Dodecyl alcohol

>  <IGC50>
5.161

>  <CAS>
112-53-8

>  <SET>
ws

>  <Species>
Tetrahymena pyriformis

>  <Test duration>
48h

$$$$

  Mrv1808 07152009202D          

 13 14  0  0  0  0            999 V2000
    1.6548   -2.1458    0.0000 N   0  0  0  0  0  0  0  0  0  0  0  0
    0.8274   -2.1458    0.0000 C   0  0  0  0  0  0  0  0  0  0  0  0
    2.0685   -1.4320    0.0000 C   0  0  0  0  0  0  0  0  0  0  0  0
    0.0000   -2.1458    0.0000 S   0  0  0  0  0  0  0  0  0  0  0  0
    1.6548   -0.7138    0.0000 C   0  0  0  0  0  0  0  0  0  0  0  0
    2.8913   -1.4320    0.0000 C   0  0  0  0  0  0  0  0  0  0  0  0
    2.0685    0.0000    0.0000 C   0  0  0  0  0  0  0  0  0  0  0  0
    3.3051   -0.7138    0.0000 C   0  0  0  0  0  0  0  0  0  0  0  0
    3.3051   -2.1458    0.0000 C   0  0  0  0  0  0  0  0  0  0  0  0
    2.8913    0.0000    0.0000 C   0  0  0  0  0  0  0  0  0  0  0  0
    4.1324   -0.7138    0.0000 C   0  0  0  0  0  0  0  0  0  0  0  0
    4.1324   -2.1458    0.0000 C   0  0  0  0  0  0  0  0  0  0  0  0
    4.5461   -1.4320    0.0000 C   0  0  0  0  0  0  0  0  0  0  0  0
  1  2  2  0  0  0  0
  1  3  1  0  0  0  0
  2  4  2  0  0  0  0
  3  5  2  0  0  0  0
  3  6  1  0  0  0  0
  5  7  1  0  0  0  0
  8  6  1  0  0  0  0
  9  6  2  0  0  0  0
  7 10  2  0  0  0  0
 10  8  1  0  0  0  0
  8 11  2  0  0  0  0
 12  9  1  0  0  0  0
 11 13  1  0  0  0  0
 13 12  2  0  0  0  0
M  END
>  <Name>
Isothiocyanic acid, 1-naphthyl ester

>  <IGC50>
5.137

>  <CAS>
551-06-4

>  <SET>
ws

>  <Species>
Tetrahymena pyriformis

>  <Test duration>
48h

$$$$

  Mrv1808 07152009203D          

 13 12  0  0  0  0            999 V2000
   -0.6349   -2.4383   -1.4841 Br  0  0  0  0  0  0  0  0  0  0  0  0
    0.0003   -1.3434    0.0001 C   0  0  2  0  0  0  0  0  0  0  0  0
    0.6367   -2.4374    1.4844 Br  0  0  0  0  0  0  0  0  0  0  0  0
   -1.2143   -0.5687    0.4587 C   0  0  0  0  0  0  0  0  0  0  0  0
    1.2143   -0.5681   -0.4589 C   0  0  0  0  0  0  0  0  0  0  0  0
   -1.3253    0.5971   -0.2498 O   0  0  0  0  0  0  0  0  0  0  0  0
   -2.0194   -0.9530    1.2989 O   0  0  0  0  0  0  0  0  0  0  0  0
    1.3249    0.5977    0.2494 O   0  0  0  0  0  0  0  0  0  0  0  0
    2.0197   -0.9522   -1.2988 O   0  0  0  0  0  0  0  0  0  0  0  0
   -2.4776    1.3942    0.0416 C   0  0  0  0  0  0  0  0  0  0  0  0
    2.4770    1.3954   -0.0416 C   0  0  0  0  0  0  0  0  0  0  0  0
   -2.4479    2.6378   -0.8209 C   0  0  0  0  0  0  0  0  0  0  0  0
    2.4465    2.6390    0.8209 C   0  0  0  0  0  0  0  0  0  0  0  0
  1  2  1  0  0  0  0
  3  2  1  0  0  0  0
  2  4  1  0  0  0  0
  2  5  1  0  0  0  0
  6  4  1  0  0  0  0
  7  4  2  0  0  0  0
  8  5  1  0  0  0  0
  9  5  2  0  0  0  0
  6 10  1  0  0  0  0
  8 11  1  0  0  0  0
 10 12  1  0  0  0  0
 11 13  1  0  0  0  0
M  END
>  <Name>
diethyl 2,2-dibromopropanedioate

>  <IGC50>
5.137

>  <CAS>
631-22-1

>  <SET>
ws

>  <Species>
Tetrahymena pyriformis

>  <Test duration>
48h

$$$$

  Mrv1808 07152009202D          

 11 11  0  0  0  0            999 V2000
    2.0915    1.4222    0.0000 C   0  0  0  0  0  0  0  0  0  0  0  0
    1.2967    1.4222    0.0000 C   0  0  0  0  0  0  0  0  0  0  0  0
    2.5098    2.1333    0.0000 C   0  0  0  0  0  0  0  0  0  0  0  0
    0.8784    2.1333    0.0000 C   0  0  0  0  0  0  0  0  0  0  0  0
    0.8784    0.7111    0.0000 N   0  0  0  0  0  0  0  0  0  0  0  0
    2.0915    2.8445    0.0000 C   0  0  0  0  0  0  0  0  0  0  0  0
    3.3464    2.1333    0.0000 Cl  0  0  0  0  0  0  0  0  0  0  0  0
    1.2967    2.8445    0.0000 C   0  0  0  0  0  0  0  0  0  0  0  0
    0.0418    2.1333    0.0000 O   0  0  0  0  0  0  0  0  0  0  0  0
    1.2549    0.0000    0.0000 O   0  0  0  0  0  0  0  0  0  0  0  0
    0.0000    0.7111    0.0000 O   0  0  0  0  0  0  0  0  0  0  0  0
  2  1  2  0  0  0  0
  1  3  1  0  0  0  0
  4  2  1  0  0  0  0
  2  5  1  0  0  0  0
  3  6  2  0  0  0  0
  3  7  1  0  0  0  0
  8  4  2  0  0  0  0
  4  9  1  0  0  0  0
  5 10  2  0  0  0  0
  5 11  2  0  0  0  0
  6  8  1  0  0  0  0
M  END
>  <Name>
Phenol, 4-chloro-2-nitro-

>  <IGC50>
5.12

>  <CAS>
89-64-5

>  <SET>
ws

>  <Species>
Tetrahymena pyriformis

>  <Test duration>
48h

$$$$

  Mrv1808 07152009202D          

 13 13  0  0  0  0            999 V2000
    2.1276    1.5197    0.0000 C   0  0  0  0  0  0  0  0  0  0  0  0
    1.3026    1.5197    0.0000 C   0  0  0  0  0  0  0  0  0  0  0  0
    2.5618    2.2145    0.0000 C   0  0  0  0  0  0  0  0  0  0  0  0
    0.8685    2.2145    0.0000 C   0  0  0  0  0  0  0  0  0  0  0  0
    0.8685    0.7382    0.0000 N   0  0  0  0  0  0  0  0  0  0  0  0
    2.1276    2.9526    0.0000 C   0  0  0  0  0  0  0  0  0  0  0  0
    3.4303    2.2145    0.0000 N   0  0  0  0  0  0  0  0  0  0  0  0
    1.3026    2.9526    0.0000 C   0  0  0  0  0  0  0  0  0  0  0  0
    0.0000    2.2145    0.0000 I   0  0  0  0  0  0  0  0  0  0  0  0
    0.0000    0.7382    0.0000 O   0  0  0  0  0  0  0  0  0  0  0  0
    1.3026    0.0000    0.0000 O   0  0  0  0  0  0  0  0  0  0  0  0
    3.8645    1.5197    0.0000 O   0  0  0  0  0  0  0  0  0  0  0  0
    3.8645    2.9526    0.0000 O   0  0  0  0  0  0  0  0  0  0  0  0
  2  1  2  0  0  0  0
  1  3  1  0  0  0  0
  4  2  1  0  0  0  0
  2  5  1  0  0  0  0
  3  6  2  0  0  0  0
  3  7  1  0  0  0  0
  8  4  2  0  0  0  0
  4  9  1  0  0  0  0
  5 10  2  0  0  0  0
  5 11  2  0  0  0  0
  6  8  1  0  0  0  0
  7 12  2  0  0  0  0
  7 13  2  0  0  0  0
M  END
>  <Name>
1-Iodo-2,4-dinitrobenzene

>  <IGC50>
5.12

>  <CAS>
709-49-9

>  <SET>
ws

>  <Species>
Tetrahymena pyriformis

>  <Test duration>
48h

$$$$

  Mrv1808 07152009202D          

 14 13  0  0  0  0            999 V2000
    0.0000   -1.2390    0.0000 C   0  0  0  0  0  0  0  0  0  0  0  0
    0.7141   -0.8259    0.0000 C   0  0  0  0  0  0  0  0  0  0  0  0
    1.4368   -1.2390    0.0000 C   0  0  0  0  0  0  0  0  0  0  0  0
    2.1509   -0.8259    0.0000 C   0  0  0  0  0  0  0  0  0  0  0  0
    2.8650   -1.2390    0.0000 C   0  0  0  0  0  0  0  0  0  0  0  0
    3.5878   -0.8259    0.0000 C   0  0  0  0  0  0  0  0  0  0  0  0
    4.3019   -1.2390    0.0000 C   0  0  0  0  0  0  0  0  0  0  0  0
    5.0161   -0.8259    0.0000 C   0  0  0  0  0  0  0  0  0  0  0  0
    5.7387   -1.2390    0.0000 C   0  0  0  0  0  0  0  0  0  0  0  0
    6.4529   -0.8259    0.0000 C   0  0  0  0  0  0  0  0  0  0  0  0
    7.1670   -1.2390    0.0000 C   0  0  0  0  0  0  0  0  0  0  0  0
    7.8897   -0.8259    0.0000 C   0  0  0  0  0  0  0  0  0  0  0  0
    7.8897    0.0000    0.0000 O   0  0  0  0  0  0  0  0  0  0  0  0
    8.6039   -1.2390    0.0000 C   0  0  0  0  0  0  0  0  0  0  0  0
  1  2  1  0  0  0  0
  2  3  1  0  0  0  0
  3  4  1  0  0  0  0
  4  5  1  0  0  0  0
  5  6  1  0  0  0  0
  6  7  1  0  0  0  0
  7  8  1  0  0  0  0
  8  9  1  0  0  0  0
  9 10  1  0  0  0  0
 10 11  1  0  0  0  0
 11 12  1  0  0  0  0
 12 13  2  0  0  0  0
 12 14  1  0  0  0  0
M  END
>  <Name>
2-Tridecanone

>  <IGC50>
5.119

>  <CAS>
593-08-8

>  <SET>
ws

>  <Species>
Tetrahymena pyriformis

>  <Test duration>
48h

$$$$

  Mrv1808 07152009203D          

 19 21  0  0  0  0            999 V2000
    0.0004    1.3050    0.0004 O   0  0  0  0  0  0  0  0  0  0  0  0
    0.0008   -0.0617    0.0004 C   0  0  0  0  0  0  0  0  0  0  0  0
   -1.2093   -0.7582    0.0000 C   0  0  0  0  0  0  0  0  0  0  0  0
    1.2088   -0.7589    0.0003 C   0  0  0  0  0  0  0  0  0  0  0  0
   -2.4749   -0.0569    0.0000 C   0  0  0  0  0  0  0  0  0  0  0  0
   -1.2068   -2.1543   -0.0006 C   0  0  0  0  0  0  0  0  0  0  0  0
    2.4763   -0.0560    0.0001 C   0  0  0  0  0  0  0  0  0  0  0  0
    1.2091   -2.1538   -0.0004 C   0  0  0  0  0  0  0  0  0  0  0  0
   -3.0853    0.2806    1.2080 C   0  0  0  0  0  0  0  0  0  0  0  0
   -3.0847    0.2816   -1.2079 C   0  0  0  0  0  0  0  0  0  0  0  0
    0.0012   -2.8514   -0.0008 C   0  0  0  0  0  0  0  0  0  0  0  0
    3.0837    0.2817   -1.2079 C   0  0  0  0  0  0  0  0  0  0  0  0
    3.0843    0.2806    1.2080 C   0  0  0  0  0  0  0  0  0  0  0  0
   -4.3054    0.9567    1.2080 C   0  0  0  0  0  0  0  0  0  0  0  0
   -4.3046    0.9578   -1.2079 C   0  0  0  0  0  0  0  0  0  0  0  0
    4.3035    0.9584   -1.2079 C   0  0  0  0  0  0  0  0  0  0  0  0
    4.3041    0.9574    1.2081 C   0  0  0  0  0  0  0  0  0  0  0  0
   -4.9150    1.2953    0.0001 C   0  0  0  0  0  0  0  0  0  0  0  0
    4.9136    1.2962    0.0000 C   0  0  0  0  0  0  0  0  0  0  0  0
  1  2  1  0  0  0  0
  3  2  2  0  0  0  0
  4  2  1  0  0  0  0
  3  5  1  0  0  0  0
  3  6  1  0  0  0  0
  4  7  1  0  0  0  0
  4  8  2  0  0  0  0
  5  9  2  0  0  0  0
  5 10  1  0  0  0  0
  6 11  2  0  0  0  0
  7 12  2  0  0  0  0
  7 13  1  0  0  0  0
  8 11  1  0  0  0  0
  9 14  1  0  0  0  0
 10 15  2  0  0  0  0
 12 16  1  0  0  0  0
 13 17  2  0  0  0  0
 14 18  2  0  0  0  0
 15 18  1  0  0  0  0
 16 19  2  0  0  0  0
 17 19  1  0  0  0  0
M  END
>  <Name>
2,6-diphenylphenol

>  <IGC50>
5.113

>  <CAS>
2432-11-3

>  <SET>
ws

>  <Species>
Tetrahymena pyriformis

>  <Test duration>
48h

$$$$

  Mrv1808 07152009202D          

 12 12  0  0  0  0            999 V2000
    1.3025    2.2143    0.0000 C   0  0  0  0  0  0  0  0  0  0  0  0
    0.8683    1.4762    0.0000 C   0  0  0  0  0  0  0  0  0  0  0  0
    2.1275    2.2143    0.0000 C   0  0  0  0  0  0  0  0  0  0  0  0
    0.8683    2.9958    0.0000 Cl  0  0  0  0  0  0  0  0  0  0  0  0
    1.3025    0.7815    0.0000 C   0  0  0  0  0  0  0  0  0  0  0  0
    0.0000    1.4762    0.0000 O   0  0  0  0  0  0  0  0  0  0  0  0
    2.5617    2.9958    0.0000 Cl  0  0  0  0  0  0  0  0  0  0  0  0
    2.5617    1.4762    0.0000 C   0  0  0  0  0  0  0  0  0  0  0  0
    2.1275    0.7815    0.0000 C   0  0  0  0  0  0  0  0  0  0  0  0
    0.8683    0.0434    0.0000 Cl  0  0  0  0  0  0  0  0  0  0  0  0
    3.4300    1.4762    0.0000 O   0  0  0  0  0  0  0  0  0  0  0  0
    2.5617    0.0000    0.0000 Cl  0  0  0  0  0  0  0  0  0  0  0  0
  1  2  2  0  0  0  0
  3  1  1  0  0  0  0
  1  4  1  0  0  0  0
  2  5  1  0  0  0  0
  2  6  1  0  0  0  0
  3  7  1  0  0  0  0
  8  3  2  0  0  0  0
  5  9  2  0  0  0  0
  5 10  1  0  0  0  0
  9  8  1  0  0  0  0
  8 11  1  0  0  0  0
  9 12  1  0  0  0  0
M  END
>  <Name>
1,4-Benzenediol, 2,3,5,6-tetrachloro-

>  <IGC50>
5.11

>  <CAS>
87-87-6

>  <SET>
ws

>  <Species>
Tetrahymena pyriformis

>  <Test duration>
48h

$$$$

  Mrv1808 07152009203D          

 16 16  0  0  0  0            999 V2000
   -2.4098    1.7380    0.0027 O   0  0  0  0  0  0  0  0  0  0  0  0
   -1.1708    1.1683    0.0001 C   0  0  0  0  0  0  0  0  0  0  0  0
   -1.0364   -0.2203   -0.0001 C   0  0  0  0  0  0  0  0  0  0  0  0
   -0.0354    1.9787   -0.0007 C   0  0  0  0  0  0  0  0  0  0  0  0
   -2.2398   -1.1046    0.0015 C   0  0  2  0  0  0  0  0  0  0  0  0
    0.2331   -0.7982   -0.0008 C   0  0  0  0  0  0  0  0  0  0  0  0
   -0.1526    3.3361   -0.0005 O   0  0  0  0  0  0  0  0  0  0  0  0
    1.2341    1.4007   -0.0017 C   0  0  0  0  0  0  0  0  0  0  0  0
   -1.8330   -2.6100    0.0020 C   0  0  0  0  0  0  0  0  0  0  0  0
   -3.1245   -0.8552   -1.2584 C   0  0  0  0  0  0  0  0  0  0  0  0
   -3.1974   -0.9299    1.2257 C   0  0  0  0  0  0  0  0  0  0  0  0
    1.3260    0.0314   -0.0018 C   0  0  0  0  0  0  0  0  0  0  0  0
    2.7252   -0.6064   -0.0013 C   0  0  2  0  0  0  0  0  0  0  0  0
    2.5947   -2.1448    0.0000 C   0  0  0  0  0  0  0  0  0  0  0  0
    3.4989   -0.1612    1.2587 C   0  0  0  0  0  0  0  0  0  0  0  0
    3.5875   -0.2227   -1.2252 C   0  0  0  0  0  0  0  0  0  0  0  0
  1  2  1  0  0  0  0
  3  2  2  0  0  0  0
  2  4  1  0  0  0  0
  5  3  1  0  0  0  0
  3  6  1  0  0  0  0
  7  4  1  0  0  0  0
  8  4  2  0  0  0  0
  5  9  1  0  0  0  0
  5 10  1  0  0  0  0
  5 11  1  0  0  0  0
 12  6  2  0  0  0  0
 12  8  1  0  0  0  0
 13 12  1  0  0  0  0
 13 14  1  0  0  0  0
 13 15  1  0  0  0  0
 13 16  1  0  0  0  0
M  END
>  <Name>
3,5-ditert-butylbenzene-1,2-diol

>  <IGC50>
5.11

>  <CAS>
1020-31-1

>  <SET>
ws

>  <Species>
Tetrahymena pyriformis

>  <Test duration>
48h

$$$$

  Mrv1808 07152009202D          

 10 10  0  0  0  0            999 V2000
    2.1370   -2.0581    0.0000 C   0  0  0  0  0  0  0  0  0  0  0  0
    1.4236   -2.4724    0.0000 C   0  0  0  0  0  0  0  0  0  0  0  0
    2.1370   -1.2296    0.0000 C   0  0  0  0  0  0  0  0  0  0  0  0
    0.7135   -2.0581    0.0000 C   0  0  0  0  0  0  0  0  0  0  0  0
    1.4236   -3.2877    0.0000 Cl  0  0  0  0  0  0  0  0  0  0  0  0
    1.4236   -0.8153    0.0000 C   0  0  0  0  0  0  0  0  0  0  0  0
    2.8505   -0.8153    0.0000 Cl  0  0  0  0  0  0  0  0  0  0  0  0
    0.7135   -1.2296    0.0000 C   0  0  0  0  0  0  0  0  0  0  0  0
    0.0000   -2.4724    0.0000 Cl  0  0  0  0  0  0  0  0  0  0  0  0
    1.4236    0.0000    0.0000 O   0  0  0  0  0  0  0  0  0  0  0  0
  1  2  2  0  0  0  0
  1  3  1  0  0  0  0
  2  4  1  0  0  0  0
  2  5  1  0  0  0  0
  3  6  2  0  0  0  0
  3  7  1  0  0  0  0
  8  4  2  0  0  0  0
  4  9  1  0  0  0  0
  8  6  1  0  0  0  0
  6 10  1  0  0  0  0
M  END
>  <Name>
Phenol, 2,4,5-trichloro-

>  <IGC50>
5.1

>  <CAS>
95-95-4

>  <SET>
ws

>  <Species>
Tetrahymena pyriformis

>  <Test duration>
48h

$$$$

  Mrv1808 07152009202D          

 15 15  0  0  0  0            999 V2000
    2.0567   -0.7608    0.0000 C   0  0  0  0  0  0  0  0  0  0  0  0
    2.7734   -1.1683    0.0000 C   0  0  0  0  0  0  0  0  0  0  0  0
    1.6444   -1.4726    0.0000 C   0  0  0  0  0  0  0  0  0  0  0  0
    1.5315    0.0000    0.0000 C   0  0  0  0  0  0  0  0  0  0  0  0
    2.4740   -0.0491    0.0000 C   0  0  0  0  0  0  0  0  0  0  0  0
    3.4851   -0.7608    0.0000 C   0  0  0  0  0  0  0  0  0  0  0  0
    2.7734   -1.9880    0.0000 C   0  0  0  0  0  0  0  0  0  0  0  0
    0.8296   -1.4726    0.0000 C   0  0  0  0  0  0  0  0  0  0  0  0
    4.1969   -1.1683    0.0000 C   0  0  0  0  0  0  0  0  0  0  0  0
    3.4851   -2.4052    0.0000 C   0  0  0  0  0  0  0  0  0  0  0  0
    0.0000   -1.6837    0.0000 C   0  0  0  0  0  0  0  0  0  0  0  0
    0.1767   -0.5350    0.0000 C   0  0  0  0  0  0  0  0  0  0  0  0
    0.6430   -2.4151    0.0000 C   0  0  0  0  0  0  0  0  0  0  0  0
    4.1969   -1.9880    0.0000 C   0  0  0  0  0  0  0  0  0  0  0  0
    4.9087   -2.4052    0.0000 O   0  0  0  0  0  0  0  0  0  0  0  0
  1  2  1  0  0  0  0
  1  3  1  0  0  0  0
  1  4  1  0  0  0  0
  1  5  1  0  0  0  0
  2  6  2  0  0  0  0
  2  7  1  0  0  0  0
  3  8  1  0  0  0  0
  6  9  1  0  0  0  0
 10  7  2  0  0  0  0
  8 11  1  0  0  0  0
  8 12  1  0  0  0  0
  8 13  1  0  0  0  0
  9 14  2  0  0  0  0
 14 10  1  0  0  0  0
 14 15  1  0  0  0  0
M  END
>  <Name>
Phenol, 4-(1,1,3,3-tetramethylbutyl)-

>  <IGC50>
5.1

>  <CAS>
140-66-9

>  <SET>
ws

>  <Species>
Tetrahymena pyriformis

>  <Test duration>
48h

$$$$

  Mrv1808 07152009202D          

 13 12  0  0  0  0            999 V2000
    8.7840    0.4183    0.0000 O   0  0  0  0  0  0  0  0  0  0  0  0
    8.0729    0.0000    0.0000 C   0  0  0  0  0  0  0  0  0  0  0  0
    7.3618    0.4183    0.0000 C   0  0  0  0  0  0  0  0  0  0  0  0
    6.5253    0.4183    0.0000 C   0  0  0  0  0  0  0  0  0  0  0  0
    5.7723    0.0000    0.0000 C   0  0  0  0  0  0  0  0  0  0  0  0
    5.0613    0.4183    0.0000 C   0  0  0  0  0  0  0  0  0  0  0  0
    4.3502    0.0000    0.0000 C   0  0  0  0  0  0  0  0  0  0  0  0
    3.5972    0.4183    0.0000 C   0  0  0  0  0  0  0  0  0  0  0  0
    2.8862    0.0000    0.0000 C   0  0  0  0  0  0  0  0  0  0  0  0
    2.1751    0.4183    0.0000 C   0  0  0  0  0  0  0  0  0  0  0  0
    1.4221    0.0000    0.0000 C   0  0  0  0  0  0  0  0  0  0  0  0
    0.7111    0.4183    0.0000 C   0  0  0  0  0  0  0  0  0  0  0  0
    0.0000    0.0000    0.0000 C   0  0  0  0  0  0  0  0  0  0  0  0
  1  2  1  0  0  0  0
  2  3  1  0  0  0  0
  4  3  2  0  0  0  0
  5  4  1  0  0  0  0
  6  5  1  0  0  0  0
  7  6  1  0  0  0  0
  8  7  1  0  0  0  0
  9  8  1  0  0  0  0
 10  9  1  0  0  0  0
 11 10  1  0  0  0  0
 12 11  1  0  0  0  0
 12 13  1  0  0  0  0
M  END
>  <Name>
2-Dodecen-1-ol

>  <IGC50>
5.092

>  <CAS>
22104-81-0

>  <SET>
ws

>  <Species>
Tetrahymena pyriformis

>  <Test duration>
48h

$$$$

  Mrv1808 07152009203D          

 14 14  0  0  0  0            999 V2000
   -1.2038    1.2099    0.0321 C   0  0  0  0  0  0  0  0  0  0  0  0
   -1.2135   -0.2009    0.0220 C   0  0  0  0  0  0  0  0  0  0  0  0
    0.0000    1.9219   -0.0007 C   0  0  0  0  0  0  0  0  0  0  0  0
   -2.3502    1.8887    0.0884 F   0  0  0  0  0  0  0  0  0  0  0  0
    0.0000   -0.8915    0.0001 C   0  0  0  0  0  0  0  0  0  0  0  0
   -2.5071   -0.9787    0.0309 N   0  3  0  0  0  0  0  0  0  0  0  0
    1.2038    1.2101   -0.0330 C   0  0  0  0  0  0  0  0  0  0  0  0
    1.2132   -0.2006   -0.0219 C   0  0  0  0  0  0  0  0  0  0  0  0
   -3.4602   -0.5304   -0.5630 O   0  0  0  0  0  0  0  0  0  0  0  0
   -2.5357   -2.0338    0.6263 O   0  5  0  0  0  0  0  0  0  0  0  0
    2.3504    1.8887   -0.0895 F   0  0  0  0  0  0  0  0  0  0  0  0
    2.5072   -0.9780   -0.0302 N   0  3  0  0  0  0  0  0  0  0  0  0
    3.4566   -0.5336    0.5726 O   0  0  0  0  0  0  0  0  0  0  0  0
    2.5394   -2.0280   -0.6341 O   0  5  0  0  0  0  0  0  0  0  0  0
  1  2  1  0  0  0  0
  1  3  2  0  0  0  0
  1  4  1  0  0  0  0
  2  5  2  0  0  0  0
  2  6  1  0  0  0  0
  7  3  1  0  0  0  0
  5  8  1  0  0  0  0
  6  9  2  0  0  0  0
  6 10  1  0  0  0  0
  8  7  2  0  0  0  0
  7 11  1  0  0  0  0
  8 12  1  0  0  0  0
 12 13  2  0  0  0  0
 12 14  1  0  0  0  0
M  CHG  4   6   1  10  -1  12   1  14  -1
M  END
>  <Name>
Benzene, 1,5-difluoro-2,4-dinitro-

>  <IGC50>
5.08

>  <CAS>
327-92-4

>  <SET>
ws

>  <Species>
Tetrahymena pyriformis

>  <Test duration>
48h

$$$$

  Mrv1808 07152009202D          

 12 12  0  0  0  0            999 V2000
    0.0000   -1.4289    0.0000 O   0  0  0  0  0  0  0  0  0  0  0  0
    0.8250   -1.4289    0.0000 C   0  0  0  0  0  0  0  0  0  0  0  0
    1.2441   -0.7128    0.0000 C   0  0  0  0  0  0  0  0  0  0  0  0
    1.2441   -2.1450    0.0000 C   0  0  0  0  0  0  0  0  0  0  0  0
    2.0691   -0.7128    0.0000 C   0  0  0  0  0  0  0  0  0  0  0  0
    0.8250    0.0000    0.0000 Cl  0  0  0  0  0  0  0  0  0  0  0  0
    2.0691   -2.1450    0.0000 C   0  0  0  0  0  0  0  0  0  0  0  0
    0.8250   -2.8612    0.0000 Cl  0  0  0  0  0  0  0  0  0  0  0  0
    2.4751   -1.4289    0.0000 C   0  0  0  0  0  0  0  0  0  0  0  0
    2.4751    0.0000    0.0000 Cl  0  0  0  0  0  0  0  0  0  0  0  0
    2.4751   -2.8612    0.0000 Cl  0  0  0  0  0  0  0  0  0  0  0  0
    3.3001   -1.4289    0.0000 Cl  0  0  0  0  0  0  0  0  0  0  0  0
  1  2  1  0  0  0  0
  2  3  2  0  0  0  0
  2  4  1  0  0  0  0
  3  5  1  0  0  0  0
  3  6  1  0  0  0  0
  7  4  2  0  0  0  0
  4  8  1  0  0  0  0
  5  9  2  0  0  0  0
  5 10  1  0  0  0  0
  9  7  1  0  0  0  0
  7 11  1  0  0  0  0
  9 12  1  0  0  0  0
M  END
>  <Name>
Phenol, pentachloro-

>  <IGC50>
5.07

>  <CAS>
87-86-5

>  <SET>
ws

>  <Species>
Tetrahymena pyriformis

>  <Test duration>
48h

$$$$

  Mrv1808 07152009202D          

  6  5  0  0  0  0            999 V2000
    0.0000   -0.4148    0.0000 C   0  0  0  0  0  0  0  0  0  0  0  0
    0.7152   -0.8260    0.0000 C   0  0  0  0  0  0  0  0  0  0  0  0
    1.4304   -0.4148    0.0000 C   0  0  0  0  0  0  0  0  0  0  0  0
    2.1456   -0.8260    0.0000 N   0  0  0  0  0  0  0  0  0  0  0  0
    2.8607   -0.4148    0.0000 C   0  0  0  0  0  0  0  0  0  0  0  0
    3.5759    0.0000    0.0000 S   0  0  0  0  0  0  0  0  0  0  0  0
  1  2  2  0  0  0  0
  2  3  1  0  0  0  0
  3  4  1  0  0  0  0
  4  5  2  0  0  0  0
  5  6  2  0  0  0  0
M  END
>  <Name>
Isothiocyanic acid, allyl ester

>  <IGC50>
5.061

>  <CAS>
57-06-7

>  <SET>
ws

>  <Species>
Tetrahymena pyriformis

>  <Test duration>
48h

$$$$

  Mrv1808 07152009202D          

 11 10  0  0  0  0            999 V2000
    0.0000   -0.4139    0.0000 C   0  0  0  0  0  0  0  0  0  0  0  0
    0.7136    0.0000    0.0000 C   0  0  0  0  0  0  0  0  0  0  0  0
    1.4273   -0.4139    0.0000 C   0  0  0  0  0  0  0  0  0  0  0  0
    2.1409    0.0000    0.0000 C   0  0  0  0  0  0  0  0  0  0  0  0
    2.8546   -0.4139    0.0000 C   0  0  0  0  0  0  0  0  0  0  0  0
    3.5682    0.0000    0.0000 C   0  0  0  0  0  0  0  0  0  0  0  0
    4.2818   -0.4139    0.0000 C   0  0  0  0  0  0  0  0  0  0  0  0
    4.9955    0.0000    0.0000 C   0  0  0  0  0  0  0  0  0  0  0  0
    5.7091   -0.4139    0.0000 C   0  0  0  0  0  0  0  0  0  0  0  0
    6.4228    0.0000    0.0000 C   0  0  0  0  0  0  0  0  0  0  0  0
    7.1364   -0.4139    0.0000 N   0  0  0  0  0  0  0  0  0  0  0  0
  1  2  1  0  0  0  0
  2  3  1  0  0  0  0
  3  4  1  0  0  0  0
  4  5  1  0  0  0  0
  5  6  1  0  0  0  0
  6  7  1  0  0  0  0
  7  8  1  0  0  0  0
  8  9  1  0  0  0  0
  9 10  1  0  0  0  0
 10 11  1  0  0  0  0
M  END
>  <Name>
1-Decanamine

>  <IGC50>
5.056

>  <CAS>
2016-57-1

>  <SET>
ws

>  <Species>
Tetrahymena pyriformis

>  <Test duration>
48h

$$$$

  Mrv1808 07152009202D          

  6  5  0  0  0  0            999 V2000
    1.4298    0.0000    0.0000 O   0  0  0  0  0  0  0  0  0  0  0  0
    1.4298   -0.8264    0.0000 C   0  0  0  0  0  0  0  0  0  0  0  0
    2.1447   -1.2382    0.0000 C   0  0  0  0  0  0  0  0  0  0  0  0
    0.7149   -1.2382    0.0000 C   0  0  0  0  0  0  0  0  0  0  0  0
    2.8596   -0.8264    0.0000 Cl  0  0  0  0  0  0  0  0  0  0  0  0
    0.0000   -0.8264    0.0000 Cl  0  0  0  0  0  0  0  0  0  0  0  0
  1  2  2  0  0  0  0
  2  3  1  0  0  0  0
  2  4  1  0  0  0  0
  3  5  1  0  0  0  0
  4  6  1  0  0  0  0
M  END
>  <Name>
2-Propanone, 1,3-dichloro-

>  <IGC50>
5.046

>  <CAS>
534-07-6

>  <SET>
ws

>  <Species>
Tetrahymena pyriformis

>  <Test duration>
48h

$$$$

  Mrv1808 07152009202D          

 14 16  0  0  0  0            999 V2000
    2.8567   -0.4112    0.0000 C   0  0  0  0  0  0  0  0  0  0  0  0
    3.5676    0.0000    0.0000 C   0  0  0  0  0  0  0  0  0  0  0  0
    2.8567   -1.2377    0.0000 C   0  0  0  0  0  0  0  0  0  0  0  0
    2.1414    0.0000    0.0000 O   0  0  0  0  0  0  0  0  0  0  0  0
    4.2828   -0.4112    0.0000 C   0  0  0  0  0  0  0  0  0  0  0  0
    3.5676   -1.6489    0.0000 C   0  0  0  0  0  0  0  0  0  0  0  0
    2.1414   -1.6489    0.0000 S   0  0  0  0  0  0  0  0  0  0  0  0
    1.4262   -0.4112    0.0000 C   0  0  0  0  0  0  0  0  0  0  0  0
    4.2828   -1.2377    0.0000 C   0  0  0  0  0  0  0  0  0  0  0  0
    1.4262   -1.2377    0.0000 C   0  0  0  0  0  0  0  0  0  0  0  0
    0.7152    0.0000    0.0000 C   0  0  0  0  0  0  0  0  0  0  0  0
    0.7152   -1.6489    0.0000 C   0  0  0  0  0  0  0  0  0  0  0  0
    0.0000   -0.4112    0.0000 C   0  0  0  0  0  0  0  0  0  0  0  0
    0.0000   -1.2377    0.0000 C   0  0  0  0  0  0  0  0  0  0  0  0
  1  2  2  0  0  0  0
  1  3  1  0  0  0  0
  1  4  1  0  0  0  0
  2  5  1  0  0  0  0
  6  3  2  0  0  0  0
  3  7  1  0  0  0  0
  8  4  1  0  0  0  0
  5  9  2  0  0  0  0
  9  6  1  0  0  0  0
  7 10  1  0  0  0  0
 10  8  1  0  0  0  0
 11  8  2  0  0  0  0
 10 12  2  0  0  0  0
 13 11  1  0  0  0  0
 12 14  1  0  0  0  0
 14 13  2  0  0  0  0
M  END
>  <Name>
Dibenzooxathiane

>  <IGC50>
5.04

>  <CAS>
262-20-4

>  <SET>
ws

>  <Species>
Tetrahymena pyriformis

>  <Test duration>
48h

$$$$

  Mrv1808 07152009203D          

 16 18  0  0  0  0            999 V2000
    3.5270    1.4651    4.9421 C   0  0  0  0  0  0  0  0  0  0  0  0
    3.0263    1.2290    3.6258 C   0  0  0  0  0  0  0  0  0  0  0  0
    4.8448    1.1972    5.2302 C   0  0  0  0  0  0  0  0  0  0  0  0
    2.6569    2.0061    5.9984 C   0  0  0  0  0  0  0  0  0  0  0  0
    3.8956    0.7009    2.6473 C   0  0  0  0  0  0  0  0  0  0  0  0
    1.6821    1.5172    3.2615 C   0  0  0  0  0  0  0  0  0  0  0  0
    5.7076    0.6614    4.2484 C   0  0  0  0  0  0  0  0  0  0  0  0
    2.8886    3.2861    6.5064 C   0  0  0  0  0  0  0  0  0  0  0  0
    1.6123    1.2377    6.5178 C   0  0  0  0  0  0  0  0  0  0  0  0
    5.2464    0.4157    2.9844 C   0  0  0  0  0  0  0  0  0  0  0  0
    3.4110    0.4653    1.3314 C   0  0  0  0  0  0  0  0  0  0  0  0
    1.2389    1.2845    1.9889 C   0  0  0  0  0  0  0  0  0  0  0  0
    2.0826    3.7887    7.5214 C   0  0  0  0  0  0  0  0  0  0  0  0
    0.8132    1.7413    7.5375 C   0  0  0  0  0  0  0  0  0  0  0  0
    2.1124    0.7514    1.0123 C   0  0  0  0  0  0  0  0  0  0  0  0
    1.0470    3.0176    8.0392 C   0  0  0  0  0  0  0  0  0  0  0  0
  2  1  2  0  0  0  0
  1  3  1  0  0  0  0
  1  4  1  0  0  0  0
  2  5  1  0  0  0  0
  6  2  1  0  0  0  0
  3  7  2  0  0  0  0
  8  4  2  0  0  0  0
  4  9  1  0  0  0  0
 10  5  2  0  0  0  0
  5 11  1  0  0  0  0
 12  6  2  0  0  0  0
  7 10  1  0  0  0  0
 13  8  1  0  0  0  0
  9 14  2  0  0  0  0
 11 15  2  0  0  0  0
 15 12  1  0  0  0  0
 16 13  2  0  0  0  0
 14 16  1  0  0  0  0
M  END
>  <Name>
Naphthalene, 1-phenyl- (8CI)(9CI)

>  <IGC50>
5.04

>  <CAS>
605-02-7

>  <SET>
ws

>  <Species>
Tetrahymena pyriformis

>  <Test duration>
48h

$$$$

  Mrv1808 07152009202D          

 15 15  0  0  0  0            999 V2000
    5.7833   -0.7190    0.0000 C   0  0  0  0  0  0  0  0  0  0  0  0
    6.1986   -1.4319    0.0000 C   0  0  0  0  0  0  0  0  0  0  0  0
    4.9589   -0.7190    0.0000 C   0  0  0  0  0  0  0  0  0  0  0  0
    6.1986    0.0000    0.0000 O   0  0  0  0  0  0  0  0  0  0  0  0
    5.7833   -2.1509    0.0000 C   0  0  0  0  0  0  0  0  0  0  0  0
    4.5436   -1.4319    0.0000 C   0  0  0  0  0  0  0  0  0  0  0  0
    4.9589   -2.1509    0.0000 C   0  0  0  0  0  0  0  0  0  0  0  0
    4.5436   -2.8638    0.0000 O   0  0  0  0  0  0  0  0  0  0  0  0
    3.7192   -2.8638    0.0000 C   0  0  0  0  0  0  0  0  0  0  0  0
    3.3039   -2.1509    0.0000 C   0  0  0  0  0  0  0  0  0  0  0  0
    2.4795   -2.1509    0.0000 C   0  0  0  0  0  0  0  0  0  0  0  0
    2.0641   -1.4319    0.0000 C   0  0  0  0  0  0  0  0  0  0  0  0
    1.2397   -1.4319    0.0000 C   0  0  0  0  0  0  0  0  0  0  0  0
    0.8244   -0.7190    0.0000 C   0  0  0  0  0  0  0  0  0  0  0  0
    0.0000   -0.7190    0.0000 C   0  0  0  0  0  0  0  0  0  0  0  0
  1  2  1  0  0  0  0
  1  3  2  0  0  0  0
  1  4  1  0  0  0  0
  2  5  2  0  0  0  0
  6  3  1  0  0  0  0
  5  7  1  0  0  0  0
  7  6  2  0  0  0  0
  7  8  1  0  0  0  0
  8  9  1  0  0  0  0
  9 10  1  0  0  0  0
 10 11  1  0  0  0  0
 11 12  1  0  0  0  0
 12 13  1  0  0  0  0
 13 14  1  0  0  0  0
 14 15  1  0  0  0  0
M  END
>  <Name>
4-heptoxyphenol

>  <IGC50>
5.03

>  <CAS>
13037-86-0

>  <SET>
ws

>  <Species>
Tetrahymena pyriformis

>  <Test duration>
48h

$$$$

  Mrv1808 07152009203D          

 10 10  0  0  0  0            999 V2000
    6.7883    0.9701    0.0026 C   0  0  0  0  0  0  0  0  0  0  0  0
    5.3989    1.0233    0.0026 C   0  0  0  0  0  0  0  0  0  0  0  0
    7.5324    2.1457    0.0026 C   0  0  0  0  0  0  0  0  0  0  0  0
    4.7525    2.2639    0.0061 C   0  0  0  0  0  0  0  0  0  0  0  0
    6.8892    3.3798    0.0071 C   0  0  0  0  0  0  0  0  0  0  0  0
    5.5011    3.4462    0.0091 C   0  0  0  0  0  0  0  0  0  0  0  0
    3.3377    2.3206    0.0074 C   0  0  0  0  0  0  0  0  0  0  0  0
    2.1438    2.3655    0.0085 C   0  0  0  0  0  0  0  0  0  0  0  0
    0.7076    2.4316    0.0098 C   0  0  0  0  0  0  0  0  0  0  0  0
    0.0000    1.4511    0.0167 O   0  0  0  0  0  0  0  0  0  0  0  0
  1  2  2  0  0  0  0
  3  1  1  0  0  0  0
  2  4  1  0  0  0  0
  5  3  2  0  0  0  0
  4  6  2  0  0  0  0
  4  7  1  0  0  0  0
  6  5  1  0  0  0  0
  7  8  3  0  0  0  0
  8  9  1  0  0  0  0
  9 10  2  0  0  0  0
M  END
>  <Name>
Propiolaldehyde, phenyl- (8CI)

>  <IGC50>
5.02

>  <CAS>
2579-22-8

>  <SET>
ws

>  <Species>
Tetrahymena pyriformis

>  <Test duration>
48h

$$$$

  Mrv1808 07152009202D          

 10 10  0  0  0  0            999 V2000
    0.8289    0.0000    0.0000 Cl  0  0  0  0  0  0  0  0  0  0  0  0
    1.2499   -0.7161    0.0000 C   0  0  0  0  0  0  0  0  0  0  0  0
    2.0655   -0.7161    0.0000 C   0  0  0  0  0  0  0  0  0  0  0  0
    0.8289   -1.4356    0.0000 C   0  0  0  0  0  0  0  0  0  0  0  0
    2.4866   -1.4356    0.0000 C   0  0  0  0  0  0  0  0  0  0  0  0
    0.0000   -1.4356    0.0000 Cl  0  0  0  0  0  0  0  0  0  0  0  0
    1.2499   -2.1451    0.0000 C   0  0  0  0  0  0  0  0  0  0  0  0
    3.3154   -1.4356    0.0000 Cl  0  0  0  0  0  0  0  0  0  0  0  0
    2.0655   -2.1451    0.0000 C   0  0  0  0  0  0  0  0  0  0  0  0
    2.4866   -2.8645    0.0000 Cl  0  0  0  0  0  0  0  0  0  0  0  0
  1  2  1  0  0  0  0
  3  2  1  0  0  0  0
  2  4  2  0  0  0  0
  5  3  2  0  0  0  0
  6  4  1  0  0  0  0
  7  4  1  0  0  0  0
  8  5  1  0  0  0  0
  5  9  1  0  0  0  0
  9  7  2  0  0  0  0
 10  9  1  0  0  0  0
M  END
>  <Name>
Benzene, 1,2,4,5-tetrachloro-

>  <IGC50>
5

>  <CAS>
95-94-3

>  <SET>
ws

>  <Species>
Tetrahymena pyriformis

>  <Test duration>
48h

$$$$

  Mrv1808 07152009203D          

 12 13  0  0  0  0            999 V2000
    3.0163    3.2199    1.6094 C   0  0  0  0  0  0  0  0  0  0  0  0
    3.7355    4.0958    1.1616 O   0  0  0  0  0  0  0  0  0  0  0  0
    3.3500    2.4677    2.8509 C   0  0  0  0  0  0  0  0  0  0  0  0
    1.7510    2.8602    0.9188 C   0  0  0  0  0  0  0  0  0  0  0  0
    2.4868    1.4718    3.3368 C   0  0  0  0  0  0  0  0  0  0  0  0
    4.5295    2.7518    3.5385 C   0  0  0  0  0  0  0  0  0  0  0  0
    0.9309    1.9158    1.3807 C   0  0  0  0  0  0  0  0  0  0  0  0
    1.2209    1.1501    2.6207 C   0  0  0  0  0  0  0  0  0  0  0  0
    2.8196    0.7790    4.5004 C   0  0  0  0  0  0  0  0  0  0  0  0
    4.8530    2.0544    4.6995 C   0  0  0  0  0  0  0  0  0  0  0  0
    0.4429    0.2999    3.0163 O   0  0  0  0  0  0  0  0  0  0  0  0
    4.0000    1.0700    5.1792 C   0  0  0  0  0  0  0  0  0  0  0  0
  1  2  2  0  0  0  0
  1  3  1  0  0  0  0
  4  1  1  0  0  0  0
  5  3  2  0  0  0  0
  3  6  1  0  0  0  0
  7  4  2  0  0  0  0
  5  8  1  0  0  0  0
  9  5  1  0  0  0  0
  6 10  2  0  0  0  0
  8  7  1  0  0  0  0
  8 11  2  0  0  0  0
 12  9  2  0  0  0  0
 10 12  1  0  0  0  0
M  END
>  <Name>
1,4-Naphthalenedione

>  <IGC50>
5

>  <CAS>
130-15-4

>  <SET>
ws

>  <Species>
Tetrahymena pyriformis

>  <Test duration>
48h

$$$$

  Mrv1808 07152009203D          

 10 10  0  0  0  0            999 V2000
   -0.1562    1.1897    0.0015 S   0  0  0  0  0  0  0  0  0  0  0  0
    0.9468   -0.1202   -0.0011 C   0  0  0  0  0  0  0  0  0  0  0  0
   -1.5000    0.1285    0.0028 C   0  0  0  0  0  0  0  0  0  0  0  0
    2.3240    0.1443   -0.0005 N   0  3  0  0  0  0  0  0  0  0  0  0
    0.3031   -1.3381   -0.0008 C   0  0  0  0  0  0  0  0  0  0  0  0
   -1.1145   -1.1939    0.0014 C   0  0  0  0  0  0  0  0  0  0  0  0
   -2.8181    0.6756    0.0008 C   0  0  0  0  0  0  0  0  0  0  0  0
    3.1453   -0.8157    0.0006 O   0  5  0  0  0  0  0  0  0  0  0  0
    2.7315    1.3402   -0.0013 O   0  0  0  0  0  0  0  0  0  0  0  0
   -3.8620   -0.0106   -0.0032 O   0  0  0  0  0  0  0  0  0  0  0  0
  1  2  1  0  0  0  0
  1  3  1  0  0  0  0
  4  2  1  0  0  0  0
  2  5  2  0  0  0  0
  3  6  2  0  0  0  0
  3  7  1  0  0  0  0
  8  4  1  0  0  0  0
  9  4  2  0  0  0  0
  5  6  1  0  0  0  0
 10  7  2  0  0  0  0
M  CHG  2   4   1   8  -1
M  END
>  <Name>
5-nitrothiophene-2-carbaldehyde

>  <IGC50>
4.98

>  <CAS>
4521-33-9

>  <SET>
ws

>  <Species>
Tetrahymena pyriformis

>  <Test duration>
48h

$$$$

  Mrv1808 07152009203D          

 14 15  0  0  0  0            999 V2000
    9.4494    1.0131    1.7333 C   0  0  0  0  0  0  0  0  0  0  0  0
    8.0809    1.2487    1.7444 C   0  0  0  0  0  0  0  0  0  0  0  0
   10.3378    2.0598    1.5102 C   0  0  0  0  0  0  0  0  0  0  0  0
    7.5783    2.5369    1.5278 C   0  0  0  0  0  0  0  0  0  0  0  0
    9.8499    3.3442    1.2939 C   0  0  0  0  0  0  0  0  0  0  0  0
    8.4816    3.5816    1.3013 C   0  0  0  0  0  0  0  0  0  0  0  0
    6.1308    2.7875    1.5384 C   0  0  0  0  0  0  0  0  0  0  0  0
    5.2292    1.7543    1.8190 C   0  0  0  0  0  0  0  0  0  0  0  0
    5.6241    4.0627    1.2658 C   0  0  0  0  0  0  0  0  0  0  0  0
    3.8635    1.9926    1.8303 C   0  0  0  0  0  0  0  0  0  0  0  0
    4.2567    4.3016    1.2754 C   0  0  0  0  0  0  0  0  0  0  0  0
    3.3635    3.2682    1.5618 C   0  0  0  0  0  0  0  0  0  0  0  0
    1.8935    3.5353    1.6108 C   0  0  0  0  0  0  0  0  0  0  0  0
    1.0661    2.3812    1.0860 C   0  0  0  0  0  0  0  0  0  0  0  0
  1  2  2  0  0  0  0
  3  1  1  0  0  0  0
  2  4  1  0  0  0  0
  5  3  2  0  0  0  0
  4  6  2  0  0  0  0
  4  7  1  0  0  0  0
  6  5  1  0  0  0  0
  7  8  2  0  0  0  0
  9  7  1  0  0  0  0
  8 10  1  0  0  0  0
 11  9  2  0  0  0  0
 10 12  2  0  0  0  0
 12 11  1  0  0  0  0
 12 13  1  0  0  0  0
 13 14  1  0  0  0  0
M  END
>  <Name>
Biphenyl, 4-ethyl- (8CI)

>  <IGC50>
4.97

>  <CAS>
5707-44-8

>  <SET>
ws

>  <Species>
Tetrahymena pyriformis

>  <Test duration>
48h

$$$$

  Mrv1808 07152009202D          

 11 11  0  0  0  0            999 V2000
    2.0587    0.7720    0.0000 C   0  0  0  0  0  0  0  0  0  0  0  0
    1.2438    0.7720    0.0000 C   0  0  0  0  0  0  0  0  0  0  0  0
    2.4875    1.5011    0.0000 C   0  0  0  0  0  0  0  0  0  0  0  0
    2.4875    0.0000    0.0000 Cl  0  0  0  0  0  0  0  0  0  0  0  0
    0.8578    1.5011    0.0000 C   0  0  0  0  0  0  0  0  0  0  0  0
    0.8149    0.0429    0.0000 Cl  0  0  0  0  0  0  0  0  0  0  0  0
    2.0587    2.2302    0.0000 C   0  0  0  0  0  0  0  0  0  0  0  0
    3.3454    1.5011    0.0000 Cl  0  0  0  0  0  0  0  0  0  0  0  0
    1.2438    2.2302    0.0000 C   0  0  0  0  0  0  0  0  0  0  0  0
    0.0000    1.5011    0.0000 N   0  0  0  0  0  0  0  0  0  0  0  0
    2.4875    2.9593    0.0000 Cl  0  0  0  0  0  0  0  0  0  0  0  0
  2  1  2  0  0  0  0
  1  3  1  0  0  0  0
  1  4  1  0  0  0  0
  5  2  1  0  0  0  0
  2  6  1  0  0  0  0
  3  7  2  0  0  0  0
  3  8  1  0  0  0  0
  9  5  2  0  0  0  0
  5 10  1  0  0  0  0
  7  9  1  0  0  0  0
  7 11  1  0  0  0  0
M  END
>  <Name>
Benzenamine, 2,3,4,5-tetrachloro-

>  <IGC50>
4.96

>  <CAS>
634-83-3

>  <SET>
ws

>  <Species>
Tetrahymena pyriformis

>  <Test duration>
48h

$$$$

  Mrv1808 07152009202D          

  6  5  0  0  0  0            999 V2000
    2.1751    0.0000    0.0000 C   0  0  0  0  0  0  0  0  0  0  0  0
    1.4640    0.4183    0.0000 C   0  0  0  0  0  0  0  0  0  0  0  0
    2.9280    0.4183    0.0000 Br  0  0  0  0  0  0  0  0  0  0  0  0
    0.7529    0.0000    0.0000 O   0  0  0  0  0  0  0  0  0  0  0  0
    1.4640    1.2548    0.0000 O   0  0  0  0  0  0  0  0  0  0  0  0
    0.0000    0.4183    0.0000 C   0  0  0  0  0  0  0  0  0  0  0  0
  1  2  1  0  0  0  0
  1  3  1  0  0  0  0
  2  4  1  0  0  0  0
  2  5  2  0  0  0  0
  4  6  1  0  0  0  0
M  END
>  <Name>
methyl 2-bromoacetate

>  <IGC50>
4.959

>  <CAS>
96-32-2

>  <SET>
ws

>  <Species>
Tetrahymena pyriformis

>  <Test duration>
48h

$$$$

  Mrv1808 07152009202D          

 12 11  0  0  0  0            999 V2000
    0.7129    0.0000    0.0000 C   0  0  0  0  0  0  0  0  0  0  0  0
    1.4180   -0.4152    0.0000 C   0  0  0  0  0  0  0  0  0  0  0  0
    0.0000   -0.4152    0.0000 O   0  0  0  0  0  0  0  0  0  0  0  0
    2.1309    0.0000    0.0000 C   0  0  0  0  0  0  0  0  0  0  0  0
    2.8438   -0.4152    0.0000 C   0  0  0  0  0  0  0  0  0  0  0  0
    3.5567    0.0000    0.0000 C   0  0  0  0  0  0  0  0  0  0  0  0
    4.2774   -0.4152    0.0000 C   0  0  0  0  0  0  0  0  0  0  0  0
    4.9904    0.0000    0.0000 C   0  0  0  0  0  0  0  0  0  0  0  0
    5.7033   -0.4152    0.0000 C   0  0  0  0  0  0  0  0  0  0  0  0
    6.4162    0.0000    0.0000 C   0  0  0  0  0  0  0  0  0  0  0  0
    7.1212   -0.4152    0.0000 C   0  0  0  0  0  0  0  0  0  0  0  0
    7.8342    0.0000    0.0000 C   0  0  0  0  0  0  0  0  0  0  0  0
  1  2  1  0  0  0  0
  1  3  1  0  0  0  0
  2  4  1  0  0  0  0
  4  5  1  0  0  0  0
  5  6  1  0  0  0  0
  6  7  1  0  0  0  0
  7  8  1  0  0  0  0
  8  9  1  0  0  0  0
  9 10  1  0  0  0  0
 10 11  1  0  0  0  0
 11 12  1  0  0  0  0
M  END
>  <Name>
Undecyl alcohol

>  <IGC50>
4.955

>  <CAS>
112-42-5

>  <SET>
ws

>  <Species>
Tetrahymena pyriformis

>  <Test duration>
48h

$$$$

  Mrv1808 07152009202D          

 15 15  0  0  0  0            999 V2000
    3.7158   -0.7128    0.0000 O   0  0  0  0  0  0  0  0  0  0  0  0
    4.1251   -1.4322    0.0000 C   0  0  0  0  0  0  0  0  0  0  0  0
    3.7158   -2.1450    0.0000 O   0  0  0  0  0  0  0  0  0  0  0  0
    4.9501   -1.4322    0.0000 C   0  0  0  0  0  0  0  0  0  0  0  0
    2.8908   -2.1450    0.0000 C   0  0  0  0  0  0  0  0  0  0  0  0
    5.3592   -0.7128    0.0000 C   0  0  0  0  0  0  0  0  0  0  0  0
    5.3592   -2.1450    0.0000 C   0  0  0  0  0  0  0  0  0  0  0  0
    2.4750   -1.4322    0.0000 C   0  0  0  0  0  0  0  0  0  0  0  0
    6.1842   -0.7128    0.0000 C   0  0  0  0  0  0  0  0  0  0  0  0
    6.1842   -2.1450    0.0000 C   0  0  0  0  0  0  0  0  0  0  0  0
    1.6500   -1.4322    0.0000 C   0  0  0  0  0  0  0  0  0  0  0  0
    6.6001   -1.4322    0.0000 C   0  0  0  0  0  0  0  0  0  0  0  0
    1.2408   -0.7128    0.0000 C   0  0  0  0  0  0  0  0  0  0  0  0
    0.4158   -0.7128    0.0000 C   0  0  0  0  0  0  0  0  0  0  0  0
    0.0000    0.0000    0.0000 C   0  0  0  0  0  0  0  0  0  0  0  0
  1  2  2  0  0  0  0
  2  3  1  0  0  0  0
  2  4  1  0  0  0  0
  3  5  1  0  0  0  0
  4  6  2  0  0  0  0
  4  7  1  0  0  0  0
  5  8  1  0  0  0  0
  6  9  1  0  0  0  0
 10  7  2  0  0  0  0
  8 11  1  0  0  0  0
  9 12  2  0  0  0  0
 12 10  1  0  0  0  0
 11 13  1  0  0  0  0
 13 14  1  0  0  0  0
 14 15  1  0  0  0  0
M  END
>  <Name>
Benzoic acid, hexyl ester

>  <IGC50>
4.94

>  <CAS>
6789-88-4

>  <SET>
ws

>  <Species>
Tetrahymena pyriformis

>  <Test duration>
48h

$$$$

  Mrv1808 07152009202D          

  6  5  0  0  0  0            999 V2000
    0.0000   -0.4113    0.0000 Br  0  0  0  0  0  0  0  0  0  0  0  0
    0.7152    0.0000    0.0000 C   0  0  0  0  0  0  0  0  0  0  0  0
    1.4304   -0.4113    0.0000 C   0  0  0  0  0  0  0  0  0  0  0  0
    2.1456    0.0000    0.0000 C   0  0  0  0  0  0  0  0  0  0  0  0
    2.8607   -0.4113    0.0000 C   0  0  0  0  0  0  0  0  0  0  0  0
    3.5759    0.0000    0.0000 Br  0  0  0  0  0  0  0  0  0  0  0  0
  1  2  1  0  0  0  0
  2  3  1  0  0  0  0
  3  4  2  0  0  0  0
  4  5  1  0  0  0  0
  5  6  1  0  0  0  0
M  END
>  <Name>
2-Butene, 1,4-dibromo-, trans-

>  <IGC50>
4.925

>  <CAS>
821-06-7

>  <SET>
ws

>  <Species>
Tetrahymena pyriformis

>  <Test duration>
48h

$$$$

  Mrv1808 07152009203D          

  7  6  0  0  0  0            999 V2000
    1.2839   -2.0386   -0.1190 Br  0  0  0  0  0  0  0  0  0  0  0  0
    0.0095   -0.5936   -0.4822 C   0  0  1  0  0  0  0  0  0  0  0  0
   -1.3016   -0.9356    0.1976 C   0  0  0  0  0  0  0  0  0  0  0  0
    0.6809    0.6487    0.0741 C   0  0  0  0  0  0  0  0  0  0  0  0
   -2.5737    0.5245   -0.0446 Br  0  0  0  0  0  0  0  0  0  0  0  0
    0.9015    0.8206    1.2708 O   0  0  0  0  0  0  0  0  0  0  0  0
    0.9996    1.5740   -0.8967 N   0  0  0  0  0  0  0  0  0  0  0  0
  1  2  1  0  0  0  0
  2  3  1  0  0  0  0
  2  4  1  0  0  0  0
  5  3  1  0  0  0  0
  6  4  2  0  0  0  0
  7  4  1  0  0  0  0
M  END
>  <Name>
2,3-dibromopropanamide

>  <IGC50>
4.921

>  <CAS>
15102-42-8

>  <SET>
ws

>  <Species>
Tetrahymena pyriformis

>  <Test duration>
48h

$$$$

  Mrv1808 07152009203D          

  9  8  0  0  0  0            999 V2000
    1.7503   -1.7220   -0.0036 O   0  0  0  0  0  0  0  0  0  0  0  0
    1.7971   -0.4918   -0.0145 C   0  0  0  0  0  0  0  0  0  0  0  0
    0.5457    0.3748   -0.0257 C   0  0  0  0  0  0  0  0  0  0  0  0
    3.1357    0.1626    0.0013 C   0  0  0  0  0  0  0  0  0  0  0  0
   -0.7558   -0.4288    0.0207 C   0  0  0  0  0  0  0  0  0  0  0  0
    3.3243    1.4849    0.0150 C   0  0  0  0  0  0  0  0  0  0  0  0
   -1.9983    0.4673    0.0041 C   0  0  0  0  0  0  0  0  0  0  0  0
   -3.2810   -0.3647    0.0234 C   0  0  0  0  0  0  0  0  0  0  0  0
   -4.5182    0.5178   -0.0206 C   0  0  0  0  0  0  0  0  0  0  0  0
  1  2  2  0  0  0  0
  3  2  1  0  0  0  0
  2  4  1  0  0  0  0
  5  3  1  0  0  0  0
  4  6  2  0  0  0  0
  7  5  1  0  0  0  0
  7  8  1  0  0  0  0
  8  9  1  0  0  0  0
M  END
>  <Name>
oct-1-en-3-one

>  <IGC50>
4.92

>  <CAS>
4312-99-6

>  <SET>
ws

>  <Species>
Tetrahymena pyriformis

>  <Test duration>
48h

$$$$

  Mrv1808 07152009202D          

 10 10  0  0  0  0            999 V2000
    3.2946   -1.4266    0.0000 O   0  0  0  0  0  0  0  0  0  0  0  0
    2.4710   -1.4266    0.0000 C   0  0  0  0  0  0  0  0  0  0  0  0
    2.0591   -2.1414    0.0000 C   0  0  0  0  0  0  0  0  0  0  0  0
    2.0591   -0.7116    0.0000 C   0  0  0  0  0  0  0  0  0  0  0  0
    2.4710   -2.8531    0.0000 Br  0  0  0  0  0  0  0  0  0  0  0  0
    1.2354   -2.1414    0.0000 C   0  0  0  0  0  0  0  0  0  0  0  0
    1.2354   -0.7116    0.0000 C   0  0  0  0  0  0  0  0  0  0  0  0
    2.4710    0.0000    0.0000 Br  0  0  0  0  0  0  0  0  0  0  0  0
    0.8237   -1.4266    0.0000 C   0  0  0  0  0  0  0  0  0  0  0  0
    0.0000   -1.4266    0.0000 Br  0  0  0  0  0  0  0  0  0  0  0  0
  1  2  1  0  0  0  0
  2  3  2  0  0  0  0
  2  4  1  0  0  0  0
  3  5  1  0  0  0  0
  3  6  1  0  0  0  0
  7  4  2  0  0  0  0
  4  8  1  0  0  0  0
  6  9  2  0  0  0  0
  9  7  1  0  0  0  0
  9 10  1  0  0  0  0
M  END
>  <Name>
Phenol, 2,4,6-tribromo-

>  <IGC50>
4.91

>  <CAS>
118-79-6

>  <SET>
ws

>  <Species>
Tetrahymena pyriformis

>  <Test duration>
48h

$$$$

  Mrv1808 07152009202D          

  4  3  0  0  0  0            999 V2000
    0.0000    0.0000    0.0000 C   0  0  0  0  0  0  0  0  0  0  0  0
    0.7147   -0.4121    0.0000 C   0  0  0  0  0  0  0  0  0  0  0  0
    1.4315    0.0000    0.0000 C   0  0  0  0  0  0  0  0  0  0  0  0
    2.1462   -0.4121    0.0000 O   0  0  0  0  0  0  0  0  0  0  0  0
  1  2  2  0  0  0  0
  2  3  1  0  0  0  0
  3  4  2  0  0  0  0
M  END
>  <Name>
Acrylaldehyde

>  <IGC50>
4.89

>  <CAS>
107-02-8

>  <SET>
ws

>  <Species>
Tetrahymena pyriformis

>  <Test duration>
48h

$$$$

  Mrv1808 07152009202D          

 12 12  0  0  0  0            999 V2000
    2.5797    0.7433    0.0000 C   0  0  0  0  0  0  0  0  0  0  0  0
    1.7926    0.7433    0.0000 C   0  0  0  0  0  0  0  0  0  0  0  0
    3.0169    1.4429    0.0000 C   0  0  0  0  0  0  0  0  0  0  0  0
    3.0169    0.0000    0.0000 F   0  0  0  0  0  0  0  0  0  0  0  0
    1.3555    1.4429    0.0000 C   0  0  0  0  0  0  0  0  0  0  0  0
    1.3555    0.0000    0.0000 F   0  0  0  0  0  0  0  0  0  0  0  0
    2.5797    2.2299    0.0000 C   0  0  0  0  0  0  0  0  0  0  0  0
    3.9351    1.4429    0.0000 F   0  0  0  0  0  0  0  0  0  0  0  0
    1.7926    2.2299    0.0000 C   0  0  0  0  0  0  0  0  0  0  0  0
    0.4373    1.4429    0.0000 N   0  0  0  0  0  0  0  0  0  0  0  0
    0.0000    2.2299    0.0000 O   0  0  0  0  0  0  0  0  0  0  0  0
    0.0437    0.7433    0.0000 O   0  0  0  0  0  0  0  0  0  0  0  0
  2  1  2  0  0  0  0
  1  3  1  0  0  0  0
  1  4  1  0  0  0  0
  5  2  1  0  0  0  0
  2  6  1  0  0  0  0
  3  7  2  0  0  0  0
  3  8  1  0  0  0  0
  9  5  2  0  0  0  0
  5 10  1  0  0  0  0
  7  9  1  0  0  0  0
 10 11  2  0  0  0  0
 10 12  2  0  0  0  0
M  END
>  <Name>
1,2,3-Trifluoro-4-nitrobenzene

>  <IGC50>
4.89

>  <CAS>
771-69-7

>  <SET>
ws

>  <Species>
Tetrahymena pyriformis

>  <Test duration>
48h

$$$$

  Mrv1808 07152009202D          

 16 17  0  0  0  0            999 V2000
    2.8653   -0.4175    0.0000 C   0  0  0  0  0  0  0  0  0  0  0  0
    2.8653   -1.2411    0.0000 C   0  0  0  0  0  0  0  0  0  0  0  0
    2.1504    0.0000    0.0000 C   0  0  0  0  0  0  0  0  0  0  0  0
    3.5801    0.0000    0.0000 N   0  0  0  0  0  0  0  0  0  0  0  0
    2.1504   -1.6528    0.0000 C   0  0  0  0  0  0  0  0  0  0  0  0
    1.4298   -0.4175    0.0000 C   0  0  0  0  0  0  0  0  0  0  0  0
    4.2950   -0.4175    0.0000 C   0  0  0  0  0  0  0  0  0  0  0  0
    1.4298   -1.2411    0.0000 C   0  0  0  0  0  0  0  0  0  0  0  0
    5.0157    0.0000    0.0000 C   0  0  0  0  0  0  0  0  0  0  0  0
    4.2950   -1.2411    0.0000 C   0  0  0  0  0  0  0  0  0  0  0  0
    0.7149   -1.6528    0.0000 N   0  3  0  0  0  0  0  0  0  0  0  0
    5.7191   -0.4175    0.0000 C   0  0  0  0  0  0  0  0  0  0  0  0
    5.0157   -1.6528    0.0000 C   0  0  0  0  0  0  0  0  0  0  0  0
    0.7149   -2.4764    0.0000 O   0  5  0  0  0  0  0  0  0  0  0  0
    0.0000   -1.2411    0.0000 O   0  0  0  0  0  0  0  0  0  0  0  0
    5.7191   -1.2411    0.0000 C   0  0  0  0  0  0  0  0  0  0  0  0
  1  2  2  0  0  0  0
  1  3  1  0  0  0  0
  1  4  1  0  0  0  0
  2  5  1  0  0  0  0
  6  3  2  0  0  0  0
  4  7  1  0  0  0  0
  5  8  2  0  0  0  0
  8  6  1  0  0  0  0
  7  9  2  0  0  0  0
  7 10  1  0  0  0  0
  8 11  1  0  0  0  0
  9 12  1  0  0  0  0
 10 13  2  0  0  0  0
 11 14  1  0  0  0  0
 11 15  2  0  0  0  0
 12 16  2  0  0  0  0
 13 16  1  0  0  0  0
M  CHG  2  11   1  14  -1
M  END
>  <Name>
Benzenamine, 4-nitro-N-phenyl-

>  <IGC50>
4.89

>  <CAS>
836-30-6

>  <SET>
ws

>  <Species>
Tetrahymena pyriformis

>  <Test duration>
48h

$$$$

  Mrv1808 07152009202D          

 15 15  0  0  0  0            999 V2000
    2.8463    1.2788    0.0000 C   0  0  0  0  0  0  0  0  0  0  0  0
    2.1038    1.6501    0.0000 C   0  0  0  0  0  0  0  0  0  0  0  0
    3.5889    1.6913    0.0000 C   0  0  0  0  0  0  0  0  0  0  0  0
    2.1038    2.4751    0.0000 O   0  0  0  0  0  0  0  0  0  0  0  0
    1.4438    1.2376    0.0000 C   0  0  0  0  0  0  0  0  0  0  0  0
    4.2901    1.2788    0.0000 C   0  0  0  0  0  0  0  0  0  0  0  0
    0.7425    1.6501    0.0000 C   0  0  0  0  0  0  0  0  0  0  0  0
    1.4438    0.4537    0.0000 C   0  0  0  0  0  0  0  0  0  0  0  0
    5.0327    1.6913    0.0000 C   0  0  0  0  0  0  0  0  0  0  0  0
    0.0000    1.2376    0.0000 C   0  0  0  0  0  0  0  0  0  0  0  0
    0.7425    0.0000    0.0000 C   0  0  0  0  0  0  0  0  0  0  0  0
    5.7340    1.2788    0.0000 C   0  0  0  0  0  0  0  0  0  0  0  0
    0.0000    0.4125    0.0000 C   0  0  0  0  0  0  0  0  0  0  0  0
    6.4353    1.6913    0.0000 C   0  0  0  0  0  0  0  0  0  0  0  0
    7.1366    1.3201    0.0000 C   0  0  0  0  0  0  0  0  0  0  0  0
  1  2  1  0  0  0  0
  1  3  1  0  0  0  0
  2  4  2  0  0  0  0
  2  5  1  0  0  0  0
  3  6  1  0  0  0  0
  7  5  2  0  0  0  0
  5  8  1  0  0  0  0
  6  9  1  0  0  0  0
 10  7  1  0  0  0  0
  8 11  2  0  0  0  0
  9 12  1  0  0  0  0
 13 10  2  0  0  0  0
 11 13  1  0  0  0  0
 12 14  1  0  0  0  0
 14 15  1  0  0  0  0
M  END
>  <Name>
1-Octanone, 1-phenyl-

>  <IGC50>
4.89

>  <CAS>
1674-37-9

>  <SET>
ws

>  <Species>
Tetrahymena pyriformis

>  <Test duration>
48h

$$$$

  Mrv1808 07152009202D          

 11 11  0  0  0  0            999 V2000
    2.1594    1.2631    0.0000 C   0  0  0  0  0  0  0  0  0  0  0  0
    2.1594    2.0780    0.0000 C   0  0  0  0  0  0  0  0  0  0  0  0
    1.4668    0.8149    0.0000 C   0  0  0  0  0  0  0  0  0  0  0  0
    1.4261    2.5669    0.0000 C   0  0  0  0  0  0  0  0  0  0  0  0
    2.8928    2.5261    0.0000 N   0  0  0  0  0  0  0  0  0  0  0  0
    0.7334    1.2631    0.0000 C   0  0  0  0  0  0  0  0  0  0  0  0
    1.4668    0.0000    0.0000 C   0  0  0  0  0  0  0  0  0  0  0  0
    0.7334    2.1187    0.0000 C   0  0  0  0  0  0  0  0  0  0  0  0
    3.5448    2.5261    0.0000 C   0  0  0  0  0  0  0  0  0  0  0  0
    0.0000    2.4447    0.0000 C   0  0  0  0  0  0  0  0  0  0  0  0
    4.1560    2.5261    0.0000 S   0  0  0  0  0  0  0  0  0  0  0  0
  2  1  2  0  0  0  0
  1  3  1  0  0  0  0
  4  2  1  0  0  0  0
  2  5  1  0  0  0  0
  3  6  2  0  0  0  0
  3  7  1  0  0  0  0
  8  4  2  0  0  0  0
  5  9  2  0  0  0  0
  6  8  1  0  0  0  0
  8 10  1  0  0  0  0
  9 11  2  0  0  0  0
M  END
>  <Name>
3,5-Dimethylphenyl isothiocyanate

>  <IGC50>
4.886

>  <CAS>
40046-30-8

>  <SET>
ws

>  <Species>
Tetrahymena pyriformis

>  <Test duration>
48h

$$$$

  Mrv1808 07152009202D          

  6  5  0  0  0  0            999 V2000
    0.0000   -1.6475    0.0000 Cl  0  0  0  0  0  0  0  0  0  0  0  0
    0.8225   -1.6475    0.0000 C   0  0  0  0  0  0  0  0  0  0  0  0
    1.6475   -1.6475    0.0000 Cl  0  0  0  0  0  0  0  0  0  0  0  0
    0.8225   -2.4700    0.0000 Cl  0  0  0  0  0  0  0  0  0  0  0  0
    0.8225   -0.8225    0.0000 C   0  0  0  0  0  0  0  0  0  0  0  0
    0.8225    0.0000    0.0000 N   0  0  0  0  0  0  0  0  0  0  0  0
  1  2  1  0  0  0  0
  2  3  1  0  0  0  0
  2  4  1  0  0  0  0
  2  5  1  0  0  0  0
  5  6  3  0  0  0  0
M  END
>  <Name>
Acetonitrile, trichloro-

>  <IGC50>
4.883

>  <CAS>
545-06-2

>  <SET>
ws

>  <Species>
Tetrahymena pyriformis

>  <Test duration>
48h

$$$$

  Mrv1808 07152009203D          

 14 13  0  0  0  0            999 V2000
    5.5573    1.7420    1.7619 C   0  0  0  0  0  0  0  0  0  0  0  0
    6.8482    1.2879    1.1001 C   0  0  0  0  0  0  0  0  0  0  0  0
    4.3572    1.1045    1.0681 C   0  0  0  0  0  0  0  0  0  0  0  0
    8.0590    1.9222    1.7645 C   0  0  0  0  0  0  0  0  0  0  0  0
    3.1972    1.5868    1.7479 O   0  0  0  0  0  0  0  0  0  0  0  0
    9.3522    1.4611    1.1116 C   0  0  0  0  0  0  0  0  0  0  0  0
    1.9737    1.1330    1.3516 C   0  0  0  0  0  0  0  0  0  0  0  0
   10.5612    2.1202    1.7552 C   0  0  0  0  0  0  0  0  0  0  0  0
    0.8452    1.7062    2.1606 C   0  0  0  0  0  0  0  0  0  0  0  0
    1.8984    0.3429    0.4306 O   0  0  0  0  0  0  0  0  0  0  0  0
   11.8554    1.6476    1.1132 C   0  0  0  0  0  0  0  0  0  0  0  0
   13.0627    2.3274    1.7382 C   0  0  0  0  0  0  0  0  0  0  0  0
   14.3596    1.8440    1.1094 C   0  0  0  0  0  0  0  0  0  0  0  0
   15.5601    2.5273    1.7248 C   0  0  0  0  0  0  0  0  0  0  0  0
  1  2  1  0  0  0  0
  1  3  1  0  0  0  0
  2  4  1  0  0  0  0
  3  5  1  0  0  0  0
  4  6  1  0  0  0  0
  5  7  1  0  0  0  0
  6  8  1  0  0  0  0
  7  9  1  0  0  0  0
  7 10  2  0  0  0  0
  8 11  1  0  0  0  0
 11 12  1  0  0  0  0
 12 13  1  0  0  0  0
 13 14  1  0  0  0  0
M  END
>  <Name>
Acetic acid, decyl ester

>  <IGC50>
4.88

>  <CAS>
112-17-4

>  <SET>
ws

>  <Species>
Tetrahymena pyriformis

>  <Test duration>
48h

$$$$

  Mrv1808 07152009202D          

  9  8  0  0  0  0            999 V2000
    0.0000   -0.4118    0.0000 Br  0  0  0  0  0  0  0  0  0  0  0  0
    0.7149    0.0000    0.0000 C   0  0  0  0  0  0  0  0  0  0  0  0
    1.4298   -0.4118    0.0000 C   0  0  0  0  0  0  0  0  0  0  0  0
    2.1447    0.0000    0.0000 C   0  0  0  0  0  0  0  0  0  0  0  0
    2.8595   -0.4118    0.0000 C   0  0  0  0  0  0  0  0  0  0  0  0
    3.5744    0.0000    0.0000 C   0  0  0  0  0  0  0  0  0  0  0  0
    4.2893   -0.4118    0.0000 C   0  0  0  0  0  0  0  0  0  0  0  0
    5.0042    0.0000    0.0000 C   0  0  0  0  0  0  0  0  0  0  0  0
    5.7191   -0.4118    0.0000 C   0  0  0  0  0  0  0  0  0  0  0  0
  1  2  1  0  0  0  0
  2  3  1  0  0  0  0
  3  4  1  0  0  0  0
  4  5  1  0  0  0  0
  5  6  1  0  0  0  0
  6  7  1  0  0  0  0
  7  8  1  0  0  0  0
  8  9  1  0  0  0  0
M  END
>  <Name>
Octane, 1-bromo-

>  <IGC50>
4.87

>  <CAS>
111-83-1

>  <SET>
ws

>  <Species>
Tetrahymena pyriformis

>  <Test duration>
48h

$$$$

  Mrv1808 07152009203D          

 11 11  0  0  0  0            999 V2000
    3.4994   -1.3453   -0.0004 Br  0  0  0  0  0  0  0  0  0  0  0  0
    1.9094   -0.3234    0.0002 C   0  0  0  0  0  0  0  0  0  0  0  0
    0.6692   -0.9618    0.0010 C   0  0  0  0  0  0  0  0  0  0  0  0
    1.9766    1.0698   -0.0003 C   0  0  0  0  0  0  0  0  0  0  0  0
   -0.5038   -0.2069    0.0009 C   0  0  0  0  0  0  0  0  0  0  0  0
    0.8036    1.8246   -0.0004 C   0  0  0  0  0  0  0  0  0  0  0  0
   -1.7597   -0.8738   -0.0001 N   0  3  0  0  0  0  0  0  0  0  0  0
   -0.4366    1.1863    0.0001 C   0  0  0  0  0  0  0  0  0  0  0  0
   -1.7801   -2.1274   -0.0009 O   0  5  0  0  0  0  0  0  0  0  0  0
   -2.8097   -0.1886    0.0002 O   0  0  0  0  0  0  0  0  0  0  0  0
   -1.5684    1.9465   -0.0002 O   0  0  0  0  0  0  0  0  0  0  0  0
  1  2  1  0  0  0  0
  3  2  2  0  0  0  0
  2  4  1  0  0  0  0
  5  3  1  0  0  0  0
  6  4  2  0  0  0  0
  7  5  1  0  0  0  0
  5  8  2  0  0  0  0
  8  6  1  0  0  0  0
  9  7  1  0  0  0  0
 10  7  2  0  0  0  0
 11  8  1  0  0  0  0
M  CHG  2   7   1   9  -1
M  END
>  <Name>
4-bromo-2-nitrophenol

>  <IGC50>
4.87

>  <CAS>
7693-52-9

>  <SET>
ws

>  <Species>
Tetrahymena pyriformis

>  <Test duration>
48h

$$$$

  Mrv1808 07152009202D          

  9  9  0  0  0  0            999 V2000
    0.0000   -1.6499    0.0000 C   0  0  0  0  0  0  0  0  0  0  0  0
    0.7148   -1.2381    0.0000 C   0  0  0  0  0  0  0  0  0  0  0  0
    0.7148   -0.4118    0.0000 C   0  0  0  0  0  0  0  0  0  0  0  0
    1.4297   -1.6499    0.0000 C   0  0  0  0  0  0  0  0  0  0  0  0
    1.4297    0.0000    0.0000 C   0  0  0  0  0  0  0  0  0  0  0  0
    0.0000    0.0000    0.0000 O   0  0  0  0  0  0  0  0  0  0  0  0
    2.1445   -1.2381    0.0000 C   0  0  0  0  0  0  0  0  0  0  0  0
    2.1445   -0.4118    0.0000 C   0  0  0  0  0  0  0  0  0  0  0  0
    2.8594   -1.6499    0.0000 O   0  0  0  0  0  0  0  0  0  0  0  0
  1  2  1  0  0  0  0
  2  3  2  0  0  0  0
  2  4  1  0  0  0  0
  3  5  1  0  0  0  0
  3  6  1  0  0  0  0
  7  4  2  0  0  0  0
  5  8  2  0  0  0  0
  8  7  1  0  0  0  0
  7  9  1  0  0  0  0
M  END
>  <Name>
1,4-Benzenediol, 2-methyl-

>  <IGC50>
4.86

>  <CAS>
95-71-6

>  <SET>
ws

>  <Species>
Tetrahymena pyriformis

>  <Test duration>
48h

$$$$

  Mrv1808 07152009202D          

 11 12  0  0  0  0            999 V2000
    2.1449    1.6500    0.0000 C   0  0  0  0  0  0  0  0  0  0  0  0
    2.1449    2.4750    0.0000 Br  0  0  0  0  0  0  0  0  0  0  0  0
    1.4438    1.2375    0.0000 C   0  0  0  0  0  0  0  0  0  0  0  0
    2.8875    1.2375    0.0000 C   0  0  0  0  0  0  0  0  0  0  0  0
    1.4438    0.4125    0.0000 C   0  0  0  0  0  0  0  0  0  0  0  0
    0.7425    1.6500    0.0000 C   0  0  0  0  0  0  0  0  0  0  0  0
    2.8875    0.4125    0.0000 C   0  0  0  0  0  0  0  0  0  0  0  0
    2.1449    0.0000    0.0000 C   0  0  0  0  0  0  0  0  0  0  0  0
    0.7425    0.0000    0.0000 C   0  0  0  0  0  0  0  0  0  0  0  0
    0.0000    1.2375    0.0000 C   0  0  0  0  0  0  0  0  0  0  0  0
    0.0000    0.4125    0.0000 C   0  0  0  0  0  0  0  0  0  0  0  0
  1  2  1  0  0  0  0
  3  1  2  0  0  0  0
  1  4  1  0  0  0  0
  3  5  1  0  0  0  0
  6  3  1  0  0  0  0
  4  7  2  0  0  0  0
  8  5  2  0  0  0  0
  5  9  1  0  0  0  0
 10  6  2  0  0  0  0
  7  8  1  0  0  0  0
  9 11  2  0  0  0  0
 11 10  1  0  0  0  0
M  END
>  <Name>
1-bromonaphthalene

>  <IGC50>
4.86

>  <CAS>
90-11-9

>  <SET>
ws

>  <Species>
Tetrahymena pyriformis

>  <Test duration>
48h

$$$$

  Mrv1808 07152009202D          

  5  4  0  0  0  0            999 V2000
    2.1415   -1.2356    0.0000 N   0  0  0  0  0  0  0  0  0  0  0  0
    1.4284   -0.8245    0.0000 C   0  0  0  0  0  0  0  0  0  0  0  0
    1.4284    0.0000    0.0000 O   0  0  0  0  0  0  0  0  0  0  0  0
    0.7131   -1.2356    0.0000 C   0  0  0  0  0  0  0  0  0  0  0  0
    0.0000   -0.8245    0.0000 I   0  0  0  0  0  0  0  0  0  0  0  0
  1  2  1  0  0  0  0
  2  3  2  0  0  0  0
  2  4  1  0  0  0  0
  4  5  1  0  0  0  0
M  END
>  <Name>
Acetamide, 2-iodo-

>  <IGC50>
4.854

>  <CAS>
144-48-9

>  <SET>
ws

>  <Species>
Tetrahymena pyriformis

>  <Test duration>
48h

$$$$

  Mrv1808 07152009203D          

  7  6  0  0  0  0            999 V2000
    0.0000    0.0000    0.0000 Br  0  0  0  0  0  0  0  0  0  0  0  0
   -0.6200    1.7200   -0.5400 C   0  0  1  0  0  0  0  0  0  0  0  0
   -2.0800    1.7800   -0.5000 N   0  3  0  0  0  0  0  0  0  0  0  0
   -0.0600    2.7800    0.4200 C   0  0  0  0  0  0  0  0  0  0  0  0
   -0.1800    1.9600   -2.0000 C   0  0  0  0  0  0  0  0  0  0  0  0
   -2.6200    1.1800    0.4200 O   0  0  0  0  0  0  0  0  0  0  0  0
   -2.6600    2.4000   -1.3800 O   0  5  0  0  0  0  0  0  0  0  0  0
  1  2  1  0  0  0  0
  2  3  1  0  0  0  0
  2  4  1  0  0  0  0
  2  5  1  0  0  0  0
  3  6  2  0  0  0  0
  3  7  1  0  0  0  0
M  CHG  2   3   1   7  -1
M  END
>  <Name>
2-bromo-2-nitropropane

>  <IGC50>
4.854

>  <CAS>
5447-97-2

>  <SET>
ws

>  <Species>
Tetrahymena pyriformis

>  <Test duration>
48h

$$$$

  Mrv1808 07152009203D          

 12 12  0  0  0  0            999 V2000
    2.5227    0.5171   -0.0083 C   0  0  1  0  0  0  0  0  0  0  0  0
    2.7413    1.3786   -1.2536 C   0  0  0  0  0  0  0  0  0  0  0  0
    2.7433    1.3668    1.2448 C   0  0  0  0  0  0  0  0  0  0  0  0
    1.1145   -0.0197   -0.0097 C   0  0  0  0  0  0  0  0  0  0  0  0
    0.8938   -1.3890   -0.0160 C   0  0  0  0  0  0  0  0  0  0  0  0
    0.0425    0.8519    0.0010 C   0  0  0  0  0  0  0  0  0  0  0  0
    1.9472   -2.2480   -0.0210 O   0  0  0  0  0  0  0  0  0  0  0  0
   -0.4035   -1.8808   -0.0169 C   0  0  0  0  0  0  0  0  0  0  0  0
   -1.2504    0.3596    0.0002 C   0  0  0  0  0  0  0  0  0  0  0  0
   -1.4726   -1.0063   -0.0114 C   0  0  0  0  0  0  0  0  0  0  0  0
   -2.5958    1.4566    0.0142 Cl  0  0  0  0  0  0  0  0  0  0  0  0
   -2.8820   -1.5399   -0.0128 C   0  0  0  0  0  0  0  0  0  0  0  0
  1  2  1  0  0  0  0
  1  3  1  0  0  0  0
  1  4  1  0  0  0  0
  4  5  2  0  0  0  0
  4  6  1  0  0  0  0
  5  7  1  0  0  0  0
  5  8  1  0  0  0  0
  6  9  2  0  0  0  0
  8 10  2  0  0  0  0
  9 11  1  0  0  0  0
  9 10  1  0  0  0  0
 10 12  1  0  0  0  0
M  END
>  <Name>
4-chloro-5-methyl-2-propan-2-ylphenol

>  <IGC50>
4.85

>  <CAS>
89-68-9

>  <SET>
ws

>  <Species>
Tetrahymena pyriformis

>  <Test duration>
48h

$$$$

  Mrv1808 07152009203D          

 11 10  0  0  0  0            999 V2000
   -5.8864   -0.6926    0.4252 O   0  0  0  0  0  0  0  0  0  0  0  0
   -4.9084   -0.4008   -0.2523 C   0  0  0  0  0  0  0  0  0  0  0  0
   -3.6568    0.0892    0.3556 C   0  0  0  0  0  0  0  0  0  0  0  0
   -2.6219    0.3928   -0.4370 C   0  0  0  0  0  0  0  0  0  0  0  0
   -1.3073    0.9018    0.0814 C   0  0  0  0  0  0  0  0  0  0  0  0
   -0.1182    0.0381   -0.3511 C   0  0  0  0  0  0  0  0  0  0  0  0
    1.2295    0.5950    0.1184 C   0  0  0  0  0  0  0  0  0  0  0  0
    2.3847   -0.3140   -0.3100 C   0  0  0  0  0  0  0  0  0  0  0  0
    3.7270    0.2231    0.1917 C   0  0  0  0  0  0  0  0  0  0  0  0
    4.9154   -0.6624   -0.1891 C   0  0  0  0  0  0  0  0  0  0  0  0
    6.2425   -0.1703    0.3672 C   0  0  0  0  0  0  0  0  0  0  0  0
  1  2  2  0  0  0  0
  3  2  1  0  0  0  0
  4  3  2  0  0  0  0
  5  4  1  0  0  0  0
  6  5  1  0  0  0  0
  7  6  1  0  0  0  0
  8  7  1  0  0  0  0
  8  9  1  0  0  0  0
  9 10  1  0  0  0  0
 10 11  1  0  0  0  0
M  END
>  <Name>
(E)-dec-2-enal

>  <IGC50>
4.85

>  <CAS>
3913-81-3

>  <SET>
ws

>  <Species>
Tetrahymena pyriformis

>  <Test duration>
48h

$$$$

  Mrv1808 07152009202D          

 12 12  0  0  0  0            999 V2000
    1.2130    2.1334    0.0000 C   0  0  0  0  0  0  0  0  0  0  0  0
    0.8366    1.4223    0.0000 C   0  0  0  0  0  0  0  0  0  0  0  0
    2.0497    2.1334    0.0000 C   0  0  0  0  0  0  0  0  0  0  0  0
    0.8366    2.8863    0.0000 F   0  0  0  0  0  0  0  0  0  0  0  0
    1.2130    0.7529    0.0000 C   0  0  0  0  0  0  0  0  0  0  0  0
    0.0000    1.4223    0.0000 O   0  0  0  0  0  0  0  0  0  0  0  0
    2.4680    1.4223    0.0000 C   0  0  0  0  0  0  0  0  0  0  0  0
    2.4680    2.8863    0.0000 F   0  0  0  0  0  0  0  0  0  0  0  0
    2.0497    0.7529    0.0000 C   0  0  0  0  0  0  0  0  0  0  0  0
    0.8366    0.0000    0.0000 F   0  0  0  0  0  0  0  0  0  0  0  0
    3.3046    1.4223    0.0000 O   0  0  0  0  0  0  0  0  0  0  0  0
    2.4680    0.0000    0.0000 F   0  0  0  0  0  0  0  0  0  0  0  0
  1  2  2  0  0  0  0
  3  1  1  0  0  0  0
  1  4  1  0  0  0  0
  2  5  1  0  0  0  0
  2  6  1  0  0  0  0
  7  3  2  0  0  0  0
  3  8  1  0  0  0  0
  5  9  2  0  0  0  0
  5 10  1  0  0  0  0
  9  7  1  0  0  0  0
  7 11  1  0  0  0  0
  9 12  1  0  0  0  0
M  END
>  <Name>
2,3,5,6-Tetrafluorohydroquinone

>  <IGC50>
4.84

>  <CAS>
771-63-1

>  <SET>
ws

>  <Species>
Tetrahymena pyriformis

>  <Test duration>
48h

$$$$

  Mrv1808 07152009202D          

 23 25  0  0  0  0            999 V2000
    1.2347   -4.3098    0.0000 C   0  0  0  0  0  0  0  0  0  0  0  0
    0.4096   -4.3098    0.0000 C   0  0  0  0  0  0  0  0  0  0  0  0
    1.6501   -3.5944    0.0000 C   0  0  0  0  0  0  0  0  0  0  0  0
    0.0000   -3.5944    0.0000 C   0  0  0  0  0  0  0  0  0  0  0  0
    1.2347   -2.8847    0.0000 C   0  0  0  0  0  0  0  0  0  0  0  0
    2.4751   -3.5944    0.0000 O   0  0  0  0  0  0  0  0  0  0  0  0
    0.4096   -2.8847    0.0000 C   0  0  0  0  0  0  0  0  0  0  0  0
    2.8847   -2.8847    0.0000 P   0  0  0  0  0  0  0  0  0  0  0  0
    3.6001   -3.2944    0.0000 O   0  0  0  0  0  0  0  0  0  0  0  0
    2.1693   -2.4693    0.0000 O   0  0  0  0  0  0  0  0  0  0  0  0
    3.2944   -2.1693    0.0000 O   0  0  0  0  0  0  0  0  0  0  0  0
    2.1693   -1.6443    0.0000 C   0  0  0  0  0  0  0  0  0  0  0  0
    4.1194   -2.1693    0.0000 C   0  0  0  0  0  0  0  0  0  0  0  0
    1.4597   -1.2347    0.0000 C   0  0  0  0  0  0  0  0  0  0  0  0
    2.8847   -1.2347    0.0000 C   0  0  0  0  0  0  0  0  0  0  0  0
    4.5348   -1.4539    0.0000 C   0  0  0  0  0  0  0  0  0  0  0  0
    4.5348   -2.8847    0.0000 C   0  0  0  0  0  0  0  0  0  0  0  0
    1.4597   -0.4096    0.0000 C   0  0  0  0  0  0  0  0  0  0  0  0
    2.8847   -0.4096    0.0000 C   0  0  0  0  0  0  0  0  0  0  0  0
    5.3598   -1.4539    0.0000 C   0  0  0  0  0  0  0  0  0  0  0  0
    5.3598   -2.8847    0.0000 C   0  0  0  0  0  0  0  0  0  0  0  0
    2.1693    0.0000    0.0000 C   0  0  0  0  0  0  0  0  0  0  0  0
    5.7694   -2.1693    0.0000 C   0  0  0  0  0  0  0  0  0  0  0  0
  1  2  2  0  0  0  0
  1  3  1  0  0  0  0
  2  4  1  0  0  0  0
  5  3  2  0  0  0  0
  3  6  1  0  0  0  0
  4  7  2  0  0  0  0
  7  5  1  0  0  0  0
  6  8  1  0  0  0  0
  8  9  2  0  0  0  0
  8 10  1  0  0  0  0
  8 11  1  0  0  0  0
 10 12  1  0  0  0  0
 11 13  1  0  0  0  0
 12 14  2  0  0  0  0
 12 15  1  0  0  0  0
 13 16  2  0  0  0  0
 13 17  1  0  0  0  0
 14 18  1  0  0  0  0
 19 15  2  0  0  0  0
 16 20  1  0  0  0  0
 21 17  2  0  0  0  0
 18 22  2  0  0  0  0
 22 19  1  0  0  0  0
 20 23  2  0  0  0  0
 23 21  1  0  0  0  0
M  END
>  <Name>
Phosphoric acid, triphenyl ester

>  <IGC50>
4.81

>  <CAS>
115-86-6

>  <SET>
ws

>  <Species>
Tetrahymena pyriformis

>  <Test duration>
48h

$$$$

  Mrv1808 07152009202D          

 12 12  0  0  0  0            999 V2000
    0.0168    0.3702    0.0000 C   0  0  0  0  0  0  0  0  0  0  0  0
   -0.6972   -0.0410    0.0000 C   0  0  0  0  0  0  0  0  0  0  0  0
    0.7100   -0.0789    0.0000 C   0  0  0  0  0  0  0  0  0  0  0  0
    0.1214    1.1590    0.0000 O   0  0  0  0  0  0  0  0  0  0  0  0
   -0.7233   -0.8551    0.0000 C   0  0  0  0  0  0  0  0  0  0  0  0
   -1.7140    0.5151    0.0000 I   0  0  0  0  0  0  0  0  0  0  0  0
    0.7070   -0.8894    0.0000 C   0  0  0  0  0  0  0  0  0  0  0  0
    1.7192    0.4839    0.0000 I   0  0  0  0  0  0  0  0  0  0  0  0
   -0.0194   -1.2879    0.0000 C   0  0  0  0  0  0  0  0  0  0  0  0
   -0.0403   -2.1675    0.0000 N   0  3  0  0  0  0  0  0  0  0  0  0
   -0.6724   -2.5040    0.0000 O   0  0  0  0  0  0  0  0  0  0  0  0
    0.5748   -2.5336    0.0000 O   0  5  0  0  0  0  0  0  0  0  0  0
  1  2  1  0  0  0  0
  1  3  2  0  0  0  0
  1  4  1  0  0  0  0
  2  5  2  0  0  0  0
  2  6  1  0  0  0  0
  7  3  1  0  0  0  0
  3  8  1  0  0  0  0
  5  9  1  0  0  0  0
  9  7  2  0  0  0  0
  9 10  1  0  0  0  0
 10 11  2  0  0  0  0
 10 12  1  0  0  0  0
M  CHG  2  10   1  12  -1
M  END
>  <Name>
Phenol, 2,6-diiodo-4-nitro-

>  <IGC50>
4.81

>  <CAS>
305-85-1

>  <SET>
ws

>  <Species>
Tetrahymena pyriformis

>  <Test duration>
48h

$$$$

  Mrv1808 07152009202D          

 10 10  0  0  0  0            999 V2000
    2.0915    0.7529    0.0000 C   0  0  0  0  0  0  0  0  0  0  0  0
    2.5097    0.0000    0.0000 Cl  0  0  0  0  0  0  0  0  0  0  0  0
    2.5097    1.4640    0.0000 C   0  0  0  0  0  0  0  0  0  0  0  0
    1.2548    0.7529    0.0000 C   0  0  0  0  0  0  0  0  0  0  0  0
    3.3463    1.4640    0.0000 O   0  0  0  0  0  0  0  0  0  0  0  0
    2.0915    2.1751    0.0000 C   0  0  0  0  0  0  0  0  0  0  0  0
    0.8366    1.4640    0.0000 C   0  0  0  0  0  0  0  0  0  0  0  0
    1.2548    2.1751    0.0000 C   0  0  0  0  0  0  0  0  0  0  0  0
    0.0000    1.4640    0.0000 O   0  0  0  0  0  0  0  0  0  0  0  0
    0.8366    2.9280    0.0000 Cl  0  0  0  0  0  0  0  0  0  0  0  0
  1  2  1  0  0  0  0
  1  3  2  0  0  0  0
  4  1  1  0  0  0  0
  3  5  1  0  0  0  0
  3  6  1  0  0  0  0
  7  4  2  0  0  0  0
  6  8  2  0  0  0  0
  8  7  1  0  0  0  0
  7  9  1  0  0  0  0
  8 10  1  0  0  0  0
M  END
>  <Name>
Hydroquinone, 2,5-dichloro- (8CI)

>  <IGC50>
4.81

>  <CAS>
824-69-1

>  <SET>
ws

>  <Species>
Tetrahymena pyriformis

>  <Test duration>
48h

$$$$

  Mrv1808 07152009202D          

 14 14  0  0  0  0            999 V2000
    0.7111    1.2549    0.0000 C   0  0  0  0  0  0  0  0  0  0  0  0
    1.4222    0.8365    0.0000 O   0  0  0  0  0  0  0  0  0  0  0  0
    0.0000    0.8365    0.0000 C   0  0  0  0  0  0  0  0  0  0  0  0
    0.7111    2.0914    0.0000 O   0  0  0  0  0  0  0  0  0  0  0  0
    2.1750    1.2549    0.0000 C   0  0  0  0  0  0  0  0  0  0  0  0
    0.0000    0.0000    0.0000 Br  0  0  0  0  0  0  0  0  0  0  0  0
    2.1332    2.0914    0.0000 C   0  0  0  0  0  0  0  0  0  0  0  0
    2.8861    0.8365    0.0000 C   0  0  0  0  0  0  0  0  0  0  0  0
    2.8861    2.5096    0.0000 C   0  0  0  0  0  0  0  0  0  0  0  0
    3.5972    1.2549    0.0000 C   0  0  0  0  0  0  0  0  0  0  0  0
    3.5972    2.0914    0.0000 C   0  0  0  0  0  0  0  0  0  0  0  0
    4.3083    2.5096    0.0000 N   0  0  0  0  0  0  0  0  0  0  0  0
    5.0611    2.0914    0.0000 O   0  0  0  0  0  0  0  0  0  0  0  0
    4.3083    3.3462    0.0000 O   0  0  0  0  0  0  0  0  0  0  0  0
  1  2  1  0  0  0  0
  1  3  1  0  0  0  0
  1  4  2  0  0  0  0
  2  5  1  0  0  0  0
  3  6  1  0  0  0  0
  5  7  2  0  0  0  0
  8  5  1  0  0  0  0
  7  9  1  0  0  0  0
 10  8  2  0  0  0  0
  9 11  2  0  0  0  0
 11 10  1  0  0  0  0
 11 12  1  0  0  0  0
 12 13  2  0  0  0  0
 12 14  2  0  0  0  0
M  END
>  <Name>
Acetic acid, bromo-, 4-nitrophenyl ester

>  <IGC50>
4.81

>  <CAS>
19199-82-7

>  <SET>
ws

>  <Species>
Tetrahymena pyriformis

>  <Test duration>
48h

$$$$

  Mrv1808 07152009202D          

 17 17  0  0  0  0            999 V2000
    0.7013    0.8250    0.0000 N   0  0  0  0  0  0  0  0  0  0  0  0
    0.7013    0.0000    0.0000 O   0  0  0  0  0  0  0  0  0  0  0  0
    0.0000    1.2376    0.0000 O   0  0  0  0  0  0  0  0  0  0  0  0
    1.4438    1.2376    0.0000 C   0  0  0  0  0  0  0  0  0  0  0  0
    2.1451    0.8250    0.0000 C   0  0  0  0  0  0  0  0  0  0  0  0
    1.4438    2.0626    0.0000 C   0  0  0  0  0  0  0  0  0  0  0  0
    2.1451    0.0000    0.0000 O   0  0  0  0  0  0  0  0  0  0  0  0
    2.8463    1.2376    0.0000 C   0  0  0  0  0  0  0  0  0  0  0  0
    2.1451    2.4751    0.0000 C   0  0  0  0  0  0  0  0  0  0  0  0
    3.5889    0.8663    0.0000 N   0  0  0  0  0  0  0  0  0  0  0  0
    2.8463    2.0626    0.0000 C   0  0  0  0  0  0  0  0  0  0  0  0
    2.1451    3.3002    0.0000 C   0  0  0  0  0  0  0  0  0  0  0  0
    3.5889    0.0000    0.0000 O   0  0  0  0  0  0  0  0  0  0  0  0
    4.2902    1.2788    0.0000 O   0  0  0  0  0  0  0  0  0  0  0  0
    2.9701    3.3002    0.0000 C   0  0  0  0  0  0  0  0  0  0  0  0
    1.3200    3.3002    0.0000 C   0  0  0  0  0  0  0  0  0  0  0  0
    2.1451    4.1252    0.0000 C   0  0  0  0  0  0  0  0  0  0  0  0
  1  2  2  0  0  0  0
  1  3  2  0  0  0  0
  1  4  1  0  0  0  0
  5  4  2  0  0  0  0
  4  6  1  0  0  0  0
  5  7  1  0  0  0  0
  8  5  1  0  0  0  0
  6  9  2  0  0  0  0
  8 10  1  0  0  0  0
 11  8  2  0  0  0  0
  9 11  1  0  0  0  0
  9 12  1  0  0  0  0
 10 13  2  0  0  0  0
 10 14  2  0  0  0  0
 12 15  1  0  0  0  0
 12 16  1  0  0  0  0
 12 17  1  0  0  0  0
M  END
>  <Name>
Phenol, 4-(1,1-dimethylethyl)-2,6-dinitro-

>  <IGC50>
4.8

>  <CAS>
4097-49-8

>  <SET>
ws

>  <Species>
Tetrahymena pyriformis

>  <Test duration>
48h

$$$$

  Mrv1808 07152009202D          

 16 16  0  0  0  0            999 V2000
    2.3629   -0.7141    0.0000 O   0  0  0  0  0  0  0  0  0  0  0  0
    1.9497   -1.4282    0.0000 C   0  0  0  0  0  0  0  0  0  0  0  0
    2.3629   -2.1423    0.0000 C   0  0  0  0  0  0  0  0  0  0  0  0
    1.1273   -1.4282    0.0000 C   0  0  0  0  0  0  0  0  0  0  0  0
    1.9497   -2.8563    0.0000 C   0  0  0  0  0  0  0  0  0  0  0  0
    3.1853   -2.1423    0.0000 C   0  0  0  0  0  0  0  0  0  0  0  0
    0.7141   -2.1423    0.0000 C   0  0  0  0  0  0  0  0  0  0  0  0
    0.7141   -0.7141    0.0000 C   0  0  0  0  0  0  0  0  0  0  0  0
    1.1273   -2.8563    0.0000 C   0  0  0  0  0  0  0  0  0  0  0  0
    3.1853   -1.3199    0.0000 C   0  0  0  0  0  0  0  0  0  0  0  0
    4.0117   -2.1423    0.0000 C   0  0  0  0  0  0  0  0  0  0  0  0
    3.1853   -2.9687    0.0000 C   0  0  0  0  0  0  0  0  0  0  0  0
    0.3009    0.0000    0.0000 C   0  0  0  0  0  0  0  0  0  0  0  0
    1.4282   -0.3009    0.0000 C   0  0  0  0  0  0  0  0  0  0  0  0
    0.0000   -1.1273    0.0000 C   0  0  0  0  0  0  0  0  0  0  0  0
    0.7141   -3.5705    0.0000 C   0  0  0  0  0  0  0  0  0  0  0  0
  1  2  1  0  0  0  0
  2  3  2  0  0  0  0
  2  4  1  0  0  0  0
  3  5  1  0  0  0  0
  3  6  1  0  0  0  0
  7  4  2  0  0  0  0
  4  8  1  0  0  0  0
  5  9  2  0  0  0  0
  6 10  1  0  0  0  0
  6 11  1  0  0  0  0
  6 12  1  0  0  0  0
  9  7  1  0  0  0  0
  8 13  1  0  0  0  0
  8 14  1  0  0  0  0
  8 15  1  0  0  0  0
  9 16  1  0  0  0  0
M  END
>  <Name>
Phenol, 2,6-bis(1,1-dimethylethyl)-4-methyl-

>  <IGC50>
4.79

>  <CAS>
128-37-0

>  <SET>
ws

>  <Species>
Tetrahymena pyriformis

>  <Test duration>
48h

$$$$

  Mrv1808 07152009202D          

 11 11  0  0  0  0            999 V2000
    0.7157   -1.6515    0.0000 C   0  0  0  0  0  0  0  0  0  0  0  0
    0.0000   -1.2411    0.0000 C   0  0  0  0  0  0  0  0  0  0  0  0
    1.4313   -1.2411    0.0000 C   0  0  0  0  0  0  0  0  0  0  0  0
    0.0000   -0.4154    0.0000 C   0  0  0  0  0  0  0  0  0  0  0  0
    1.4313   -0.4154    0.0000 C   0  0  0  0  0  0  0  0  0  0  0  0
    2.1470   -1.6515    0.0000 C   0  0  0  0  0  0  0  0  0  0  0  0
    0.7157    0.0000    0.0000 C   0  0  0  0  0  0  0  0  0  0  0  0
    2.8577   -1.2411    0.0000 C   0  0  0  0  0  0  0  0  0  0  0  0
    3.5733   -1.6515    0.0000 C   0  0  0  0  0  0  0  0  0  0  0  0
    4.2889   -1.2411    0.0000 C   0  0  0  0  0  0  0  0  0  0  0  0
    5.0046   -1.6515    0.0000 C   0  0  0  0  0  0  0  0  0  0  0  0
  1  2  2  0  0  0  0
  1  3  1  0  0  0  0
  2  4  1  0  0  0  0
  5  3  2  0  0  0  0
  3  6  1  0  0  0  0
  4  7  2  0  0  0  0
  7  5  1  0  0  0  0
  6  8  1  0  0  0  0
  8  9  1  0  0  0  0
  9 10  1  0  0  0  0
 10 11  1  0  0  0  0
M  END
>  <Name>
Benzene, pentyl-

>  <IGC50>
4.79

>  <CAS>
538-68-1

>  <SET>
ws

>  <Species>
Tetrahymena pyriformis

>  <Test duration>
48h

$$$$

  Mrv1808 07152009202D          

 13 13  0  0  0  0            999 V2000
    0.4113   -1.4267    0.0000 N   0  3  0  0  0  0  0  0  0  0  0  0
    0.0000   -2.1418    0.0000 O   0  0  0  0  0  0  0  0  0  0  0  0
    0.0000   -0.7152    0.0000 O   0  5  0  0  0  0  0  0  0  0  0  0
    1.2340   -1.4267    0.0000 C   0  0  0  0  0  0  0  0  0  0  0  0
    1.6453   -0.7152    0.0000 C   0  0  0  0  0  0  0  0  0  0  0  0
    1.6453   -2.1418    0.0000 C   0  0  0  0  0  0  0  0  0  0  0  0
    2.4717   -0.7152    0.0000 C   0  0  0  0  0  0  0  0  0  0  0  0
    2.4717   -2.1418    0.0000 C   0  0  0  0  0  0  0  0  0  0  0  0
    1.2340   -2.8533    0.0000 Cl  0  0  0  0  0  0  0  0  0  0  0  0
    2.8830    0.0000    0.0000 Cl  0  0  0  0  0  0  0  0  0  0  0  0
    2.8830   -1.4267    0.0000 C   0  0  0  0  0  0  0  0  0  0  0  0
    2.8830   -2.8533    0.0000 Cl  0  0  0  0  0  0  0  0  0  0  0  0
    3.7057   -1.4267    0.0000 Cl  0  0  0  0  0  0  0  0  0  0  0  0
  1  2  2  0  0  0  0
  1  3  1  0  0  0  0
  1  4  1  0  0  0  0
  4  5  2  0  0  0  0
  4  6  1  0  0  0  0
  5  7  1  0  0  0  0
  8  6  2  0  0  0  0
  6  9  1  0  0  0  0
  7 10  1  0  0  0  0
  7 11  2  0  0  0  0
 11  8  1  0  0  0  0
  8 12  1  0  0  0  0
 11 13  1  0  0  0  0
M  CHG  2   1   1   3  -1
M  END
>  <Name>
Benzene, 1,2,3,4-tetrachloro-5-nitro-

>  <IGC50>
4.78

>  <CAS>
879-39-0

>  <SET>
ws

>  <Species>
Tetrahymena pyriformis

>  <Test duration>
48h

$$$$

  Mrv1808 07152009203D          

  6  5  0  0  0  0            999 V2000
    0.0000    0.0000    0.0000 C   0  0  0  0  0  0  0  0  0  0  0  0
   -1.1800    0.0000    0.0000 C   0  0  0  0  0  0  0  0  0  0  0  0
   -2.6200    0.0000    0.0000 C   0  0  0  0  0  0  0  0  0  0  0  0
   -3.2400   -1.0400    0.0000 O   0  0  0  0  0  0  0  0  0  0  0  0
   -3.1800    1.2000    0.0000 O   0  0  0  0  0  0  0  0  0  0  0  0
   -4.6000    1.1400   -0.0200 C   0  0  0  0  0  0  0  0  0  0  0  0
  1  2  3  0  0  0  0
  2  3  1  0  0  0  0
  3  4  2  0  0  0  0
  3  5  1  0  0  0  0
  5  6  1  0  0  0  0
M  END
>  <Name>
methyl prop-2-ynoate

>  <IGC50>
4.77

>  <CAS>
922-67-8

>  <SET>
ws

>  <Species>
Tetrahymena pyriformis

>  <Test duration>
48h

$$$$

  Mrv1808 07152009202D          

  8  7  0  0  0  0            999 V2000
    2.1749    1.2548    0.0000 C   0  0  0  0  0  0  0  0  0  0  0  0
    1.4221    0.8365    0.0000 C   0  0  0  0  0  0  0  0  0  0  0  0
    2.8860    0.8365    0.0000 C   0  0  0  0  0  0  0  0  0  0  0  0
    2.1749    2.0913    0.0000 O   0  0  0  0  0  0  0  0  0  0  0  0
    0.7110    1.2548    0.0000 C   0  0  0  0  0  0  0  0  0  0  0  0
    1.4221    0.0000    0.0000 O   0  0  0  0  0  0  0  0  0  0  0  0
    3.5970    1.2548    0.0000 Br  0  0  0  0  0  0  0  0  0  0  0  0
    0.0000    0.8365    0.0000 Br  0  0  0  0  0  0  0  0  0  0  0  0
  1  2  1  0  0  0  0
  1  3  1  0  0  0  0
  1  4  2  0  0  0  0
  2  5  1  0  0  0  0
  2  6  2  0  0  0  0
  3  7  1  0  0  0  0
  5  8  1  0  0  0  0
M  END
>  <Name>
2,3-Butanedione, 1,4-dibromo-

>  <IGC50>
4.762

>  <CAS>
6305-43-7

>  <SET>
ws

>  <Species>
Tetrahymena pyriformis

>  <Test duration>
48h

$$$$

  Mrv1808 07152009202D          

 11 11  0  0  0  0            999 V2000
    0.0000   -1.4297    0.0000 N   0  0  0  0  0  0  0  0  0  0  0  0
    0.8264   -1.4297    0.0000 C   0  0  0  0  0  0  0  0  0  0  0  0
    1.2382   -0.7148    0.0000 C   0  0  0  0  0  0  0  0  0  0  0  0
    1.2382   -2.1446    0.0000 C   0  0  0  0  0  0  0  0  0  0  0  0
    0.8264    0.0000    0.0000 Cl  0  0  0  0  0  0  0  0  0  0  0  0
    2.0645   -0.7148    0.0000 C   0  0  0  0  0  0  0  0  0  0  0  0
    2.0645   -2.1446    0.0000 C   0  0  0  0  0  0  0  0  0  0  0  0
    0.8264   -2.8595    0.0000 Cl  0  0  0  0  0  0  0  0  0  0  0  0
    2.4763    0.0000    0.0000 Cl  0  0  0  0  0  0  0  0  0  0  0  0
    2.4763   -1.4297    0.0000 C   0  0  0  0  0  0  0  0  0  0  0  0
    2.4763   -2.8595    0.0000 Cl  0  0  0  0  0  0  0  0  0  0  0  0
  1  2  1  0  0  0  0
  2  3  2  0  0  0  0
  2  4  1  0  0  0  0
  3  5  1  0  0  0  0
  3  6  1  0  0  0  0
  7  4  2  0  0  0  0
  4  8  1  0  0  0  0
  6  9  1  0  0  0  0
  6 10  2  0  0  0  0
 10  7  1  0  0  0  0
  7 11  1  0  0  0  0
M  END
>  <Name>
Benzenamine, 2,3,5,6-tetrachloro- (9CI)

>  <IGC50>
4.76

>  <CAS>
3481-20-7

>  <SET>
ws

>  <Species>
Tetrahymena pyriformis

>  <Test duration>
48h

$$$$

  Mrv1808 07152009202D          

 13 12  0  0  0  0            999 V2000
    0.0000   -0.4130    0.0000 C   0  0  0  0  0  0  0  0  0  0  0  0
    0.7142    0.0000    0.0000 C   0  0  0  0  0  0  0  0  0  0  0  0
    1.4370   -0.4130    0.0000 C   0  0  0  0  0  0  0  0  0  0  0  0
    2.1511    0.0000    0.0000 C   0  0  0  0  0  0  0  0  0  0  0  0
    2.8653   -0.4130    0.0000 C   0  0  0  0  0  0  0  0  0  0  0  0
    3.5880    0.0000    0.0000 C   0  0  0  0  0  0  0  0  0  0  0  0
    4.3022   -0.4130    0.0000 C   0  0  0  0  0  0  0  0  0  0  0  0
    5.0164    0.0000    0.0000 C   0  0  0  0  0  0  0  0  0  0  0  0
    5.7392   -0.4130    0.0000 C   0  0  0  0  0  0  0  0  0  0  0  0
    6.4534    0.0000    0.0000 C   0  0  0  0  0  0  0  0  0  0  0  0
    7.1675   -0.4130    0.0000 C   0  0  0  0  0  0  0  0  0  0  0  0
    7.8903    0.0000    0.0000 C   0  0  0  0  0  0  0  0  0  0  0  0
    8.6044   -0.4130    0.0000 O   0  0  0  0  0  0  0  0  0  0  0  0
  1  2  1  0  0  0  0
  2  3  1  0  0  0  0
  3  4  1  0  0  0  0
  4  5  1  0  0  0  0
  5  6  1  0  0  0  0
  6  7  1  0  0  0  0
  7  8  1  0  0  0  0
  8  9  1  0  0  0  0
  9 10  1  0  0  0  0
 10 11  1  0  0  0  0
 11 12  1  0  0  0  0
 12 13  2  0  0  0  0
M  END
>  <Name>
Lauraldehyde (8CI)

>  <IGC50>
4.76

>  <CAS>
112-54-9

>  <SET>
ws

>  <Species>
Tetrahymena pyriformis

>  <Test duration>
48h

$$$$

  Mrv1808 07152009202D          

 12 12  0  0  0  0            999 V2000
    0.0419    0.7530    0.0000 O   0  0  0  0  0  0  0  0  0  0  0  0
    0.4183    1.4640    0.0000 N   0  0  0  0  0  0  0  0  0  0  0  0
    0.0000    2.1751    0.0000 O   0  0  0  0  0  0  0  0  0  0  0  0
    1.2967    1.4640    0.0000 C   0  0  0  0  0  0  0  0  0  0  0  0
    1.7150    0.7530    0.0000 C   0  0  0  0  0  0  0  0  0  0  0  0
    1.7150    2.1751    0.0000 C   0  0  0  0  0  0  0  0  0  0  0  0
    1.2967    0.0000    0.0000 O   0  0  0  0  0  0  0  0  0  0  0  0
    2.5516    0.7530    0.0000 C   0  0  0  0  0  0  0  0  0  0  0  0
    2.5516    2.1751    0.0000 C   0  0  0  0  0  0  0  0  0  0  0  0
    2.9699    0.0000    0.0000 Cl  0  0  0  0  0  0  0  0  0  0  0  0
    2.9699    1.4640    0.0000 C   0  0  0  0  0  0  0  0  0  0  0  0
    2.9699    2.9280    0.0000 Cl  0  0  0  0  0  0  0  0  0  0  0  0
  1  2  2  0  0  0  0
  2  3  2  0  0  0  0
  2  4  1  0  0  0  0
  4  5  2  0  0  0  0
  6  4  1  0  0  0  0
  5  7  1  0  0  0  0
  5  8  1  0  0  0  0
  9  6  2  0  0  0  0
  8 10  1  0  0  0  0
  8 11  2  0  0  0  0
 11  9  1  0  0  0  0
  9 12  1  0  0  0  0
M  END
>  <Name>
Phenol, 2,4-dichloro-6-nitro-

>  <IGC50>
4.75

>  <CAS>
609-89-2

>  <SET>
ws

>  <Species>
Tetrahymena pyriformis

>  <Test duration>
48h

$$$$

  Mrv1808 07152009202D          

  9  8  0  0  0  0            999 V2000
    0.0000    0.0000    0.0000 C   0  0  0  0  0  0  0  0  0  0  0  0
    0.7291    0.3860    0.0000 C   0  0  0  0  0  0  0  0  0  0  0  0
    1.4582    0.0000    0.0000 C   0  0  0  0  0  0  0  0  0  0  0  0
    2.2301    0.3860    0.0000 C   0  0  0  0  0  0  0  0  0  0  0  0
    2.9592    0.0000    0.0000 C   0  0  0  0  0  0  0  0  0  0  0  0
    3.7312    0.3860    0.0000 C   0  0  0  0  0  0  0  0  0  0  0  0
    4.4603    0.0000    0.0000 N   0  0  0  0  0  0  0  0  0  0  0  0
    5.1894    0.3860    0.0000 C   0  0  0  0  0  0  0  0  0  0  0  0
    5.9613    0.0000    0.0000 S   0  0  0  0  0  0  0  0  0  0  0  0
  1  2  1  0  0  0  0
  2  3  1  0  0  0  0
  3  4  1  0  0  0  0
  4  5  1  0  0  0  0
  5  6  1  0  0  0  0
  6  7  1  0  0  0  0
  7  8  2  0  0  0  0
  8  9  2  0  0  0  0
M  END
>  <Name>
Hexane, 1-isothiocyanato-

>  <IGC50>
4.75

>  <CAS>
4404-45-9

>  <SET>
ws

>  <Species>
Tetrahymena pyriformis

>  <Test duration>
48h

$$$$

  Mrv1808 07152009202D          

 14 14  0  0  0  0            999 V2000
    2.4716   -3.5648    0.0000 O   0  0  0  0  0  0  0  0  0  0  0  0
    2.0603   -2.8534    0.0000 C   0  0  0  0  0  0  0  0  0  0  0  0
    1.2340   -2.8534    0.0000 C   0  0  0  0  0  0  0  0  0  0  0  0
    2.4716   -2.1381    0.0000 C   0  0  0  0  0  0  0  0  0  0  0  0
    0.8226   -3.5648    0.0000 C   0  0  0  0  0  0  0  0  0  0  0  0
    0.8226   -2.1381    0.0000 C   0  0  0  0  0  0  0  0  0  0  0  0
    2.0603   -1.4266    0.0000 C   0  0  0  0  0  0  0  0  0  0  0  0
    3.2943   -2.1381    0.0000 N   0  3  0  0  0  0  0  0  0  0  0  0
    1.2340   -1.4266    0.0000 C   0  0  0  0  0  0  0  0  0  0  0  0
    3.7057   -1.4266    0.0000 O   0  5  0  0  0  0  0  0  0  0  0  0
    3.7057   -2.8534    0.0000 O   0  0  0  0  0  0  0  0  0  0  0  0
    0.8226   -0.7115    0.0000 N   0  3  0  0  0  0  0  0  0  0  0  0
    1.2340    0.0000    0.0000 O   0  5  0  0  0  0  0  0  0  0  0  0
    0.0000   -0.7115    0.0000 O   0  0  0  0  0  0  0  0  0  0  0  0
  1  2  1  0  0  0  0
  2  3  2  0  0  0  0
  2  4  1  0  0  0  0
  3  5  1  0  0  0  0
  3  6  1  0  0  0  0
  7  4  2  0  0  0  0
  4  8  1  0  0  0  0
  6  9  2  0  0  0  0
  9  7  1  0  0  0  0
  8 10  1  0  0  0  0
  8 11  2  0  0  0  0
  9 12  1  0  0  0  0
 12 13  1  0  0  0  0
 12 14  2  0  0  0  0
M  CHG  4   8   1  10  -1  12   1  13  -1
M  END
>  <Name>
Phenol, 2-methyl-4,6-dinitro-

>  <IGC50>
4.73

>  <CAS>
534-52-1

>  <SET>
ws

>  <Species>
Tetrahymena pyriformis

>  <Test duration>
48h

$$$$

  Mrv1808 07152009203D          

 11 11  0  0  0  0            999 V2000
    2.2099   -0.1619    0.0244 C   0  0  0  0  0  0  0  0  0  0  0  0
    1.4868    1.0313   -0.0967 C   0  0  0  0  0  0  0  0  0  0  0  0
    1.5478   -1.3947    0.1325 C   0  0  0  0  0  0  0  0  0  0  0  0
    3.5659   -0.0440    0.0258 O   0  0  0  0  0  0  0  0  0  0  0  0
    0.0928    1.0069   -0.0995 C   0  0  0  0  0  0  0  0  0  0  0  0
    0.1643   -1.4158    0.1227 C   0  0  0  0  0  0  0  0  0  0  0  0
   -0.5719   -0.2277    0.0176 C   0  0  0  0  0  0  0  0  0  0  0  0
   -0.6304    2.2994   -0.2375 C   0  0  0  0  0  0  0  0  0  0  0  0
   -2.0640   -0.3373    0.0312 N   0  3  0  0  0  0  0  0  0  0  0  0
   -2.5929   -1.2053   -0.6353 O   0  0  0  0  0  0  0  0  0  0  0  0
   -2.7238    0.4192    0.7151 O   0  5  0  0  0  0  0  0  0  0  0  0
  1  2  1  0  0  0  0
  1  3  2  0  0  0  0
  1  4  1  0  0  0  0
  2  5  2  0  0  0  0
  6  3  1  0  0  0  0
  5  7  1  0  0  0  0
  5  8  1  0  0  0  0
  7  6  2  0  0  0  0
  7  9  1  0  0  0  0
  9 10  2  0  0  0  0
  9 11  1  0  0  0  0
M  CHG  2   9   1  11  -1
M  END
>  <Name>
Phenol, 3-methyl-4-nitro-

>  <IGC50>
4.73

>  <CAS>
2581-34-2

>  <SET>
ws

>  <Species>
Tetrahymena pyriformis

>  <Test duration>
48h

$$$$

  Mrv1808 07152009202D          

  7  6  0  0  0  0            999 V2000
    2.1750    1.6731    0.0000 C   0  0  0  0  0  0  0  0  0  0  0  0
    1.4640    2.0914    0.0000 C   0  0  0  0  0  0  0  0  0  0  0  0
    2.1750    0.8365    0.0000 N   0  0  0  0  0  0  0  0  0  0  0  0
    0.7111    1.6731    0.0000 C   0  0  0  0  0  0  0  0  0  0  0  0
    2.8861    0.4183    0.0000 C   0  0  0  0  0  0  0  0  0  0  0  0
    0.0000    2.0914    0.0000 C   0  0  0  0  0  0  0  0  0  0  0  0
    3.5972    0.0000    0.0000 S   0  0  0  0  0  0  0  0  0  0  0  0
  1  2  1  0  0  0  0
  1  3  1  0  0  0  0
  2  4  1  0  0  0  0
  3  5  2  0  0  0  0
  4  6  1  0  0  0  0
  5  7  2  0  0  0  0
M  END
>  <Name>
Isothiocyanic acid, butyl ester

>  <IGC50>
4.721

>  <CAS>
592-82-5

>  <SET>
ws

>  <Species>
Tetrahymena pyriformis

>  <Test duration>
48h

$$$$

  Mrv1808 07152009203D          

  9  8  0  0  0  0            999 V2000
   -4.1897   -1.2271    0.1511 O   0  0  0  0  0  0  0  0  0  0  0  0
   -3.8690   -0.0831   -0.1357 C   0  0  0  0  0  0  0  0  0  0  0  0
   -2.4963    0.3402   -0.0589 C   0  0  0  0  0  0  0  0  0  0  0  0
   -1.3501    0.6927    0.0038 C   0  0  0  0  0  0  0  0  0  0  0  0
    0.0520    1.1259    0.0812 C   0  0  0  0  0  0  0  0  0  0  0  0
    1.0290   -0.0425   -0.0621 C   0  0  0  0  0  0  0  0  0  0  0  0
    2.4935    0.3841    0.0867 C   0  0  0  0  0  0  0  0  0  0  0  0
    3.4372   -0.8057   -0.0919 C   0  0  0  0  0  0  0  0  0  0  0  0
    4.8933   -0.3844    0.0256 C   0  0  0  0  0  0  0  0  0  0  0  0
  1  2  2  0  0  0  0
  3  2  1  0  0  0  0
  4  3  3  0  0  0  0
  5  4  1  0  0  0  0
  6  5  1  0  0  0  0
  7  6  1  0  0  0  0
  7  8  1  0  0  0  0
  8  9  1  0  0  0  0
M  END
>  <Name>
oct-2-ynal

>  <IGC50>
4.72

>  <CAS>
1846-68-0

>  <SET>
ws

>  <Species>
Tetrahymena pyriformis

>  <Test duration>
48h

$$$$

  Mrv1808 07152009203D          

 11 11  0  0  0  0            999 V2000
   -1.6183   -2.2456   -0.1091 Cl  0  0  0  0  0  0  0  0  0  0  0  0
   -0.4559   -0.9567   -0.0744 C   0  0  0  0  0  0  0  0  0  0  0  0
   -0.8977    0.3628   -0.1715 C   0  0  0  0  0  0  0  0  0  0  0  0
    0.9067   -1.2288    0.0487 C   0  0  0  0  0  0  0  0  0  0  0  0
    0.0232    1.4104   -0.1450 C   0  0  0  0  0  0  0  0  0  0  0  0
   -2.3097    0.7046   -0.3021 C   0  0  0  0  0  0  0  0  0  0  0  0
    1.5240   -2.8400    0.1728 Cl  0  0  0  0  0  0  0  0  0  0  0  0
    1.8275   -0.1812    0.0749 C   0  0  0  0  0  0  0  0  0  0  0  0
    1.3858    1.1385   -0.0216 C   0  0  0  0  0  0  0  0  0  0  0  0
   -2.9075    1.4049    0.5162 O   0  0  0  0  0  0  0  0  0  0  0  0
    2.5218    2.4311    0.0110 Cl  0  0  0  0  0  0  0  0  0  0  0  0
  1  2  1  0  0  0  0
  3  2  2  0  0  0  0
  2  4  1  0  0  0  0
  3  5  1  0  0  0  0
  3  6  1  0  0  0  0
  7  4  1  0  0  0  0
  4  8  2  0  0  0  0
  5  9  2  0  0  0  0
 10  6  2  0  0  0  0
  9  8  1  0  0  0  0
 11  9  1  0  0  0  0
M  END
>  <Name>
2,3,5-trichlorobenzaldehyde

>  <IGC50>
4.72

>  <CAS>
56961-75-2

>  <SET>
ws

>  <Species>
Tetrahymena pyriformis

>  <Test duration>
48h

$$$$

  Mrv1808 07152009202D          

 17 18  0  0  0  0            999 V2000
    1.4290    1.6500    0.0000 C   0  0  0  0  0  0  0  0  0  0  0  0
    0.7145    1.2375    0.0000 C   0  0  0  0  0  0  0  0  0  0  0  0
    1.4290    2.4751    0.0000 N   0  0  0  0  0  0  0  0  0  0  0  0
    2.1435    1.2375    0.0000 S   0  0  0  0  0  0  0  0  0  0  0  0
    0.0000    1.6500    0.0000 C   0  0  0  0  0  0  0  0  0  0  0  0
    0.7145    0.4125    0.0000 N   0  3  0  0  0  0  0  0  0  0  0  0
    0.7145    2.8876    0.0000 C   0  0  0  0  0  0  0  0  0  0  0  0
    2.8579    1.6500    0.0000 C   0  0  0  0  0  0  0  0  0  0  0  0
    0.0000    2.4751    0.0000 C   0  0  0  0  0  0  0  0  0  0  0  0
    1.4290    0.0000    0.0000 O   0  0  0  0  0  0  0  0  0  0  0  0
    0.0000    0.0000    0.0000 O   0  5  0  0  0  0  0  0  0  0  0  0
    3.5724    1.2375    0.0000 C   0  0  0  0  0  0  0  0  0  0  0  0
    4.2869    1.6500    0.0000 C   0  0  0  0  0  0  0  0  0  0  0  0
    3.5724    0.4125    0.0000 C   0  0  0  0  0  0  0  0  0  0  0  0
    5.0014    1.2375    0.0000 C   0  0  0  0  0  0  0  0  0  0  0  0
    4.2869    0.0000    0.0000 C   0  0  0  0  0  0  0  0  0  0  0  0
    5.0014    0.4125    0.0000 C   0  0  0  0  0  0  0  0  0  0  0  0
  1  2  1  0  0  0  0
  1  3  2  0  0  0  0
  1  4  1  0  0  0  0
  2  5  2  0  0  0  0
  2  6  1  0  0  0  0
  7  3  1  0  0  0  0
  4  8  1  0  0  0  0
  5  9  1  0  0  0  0
  6 10  2  0  0  0  0
  6 11  1  0  0  0  0
  9  7  2  0  0  0  0
  8 12  1  0  0  0  0
 12 13  1  0  0  0  0
 12 14  2  0  0  0  0
 13 15  2  0  0  0  0
 16 14  1  0  0  0  0
 15 17  1  0  0  0  0
 17 16  2  0  0  0  0
M  CHG  2   6   1  11  -1
M  END
>  <Name>
3-Nitro-2-benzylsulfanylpyridine

>  <IGC50>
4.72

>  <CAS>
69212-31-3

>  <SET>
ws

>  <Species>
Tetrahymena pyriformis

>  <Test duration>
48h

$$$$

  Mrv1808 07152009203D          

 12 12  0  0  0  0            999 V2000
    3.3824   -0.2150   -0.0522 C   0  0  0  0  0  0  0  0  0  0  0  0
    2.0108    0.1671   -0.0224 C   0  0  0  0  0  0  0  0  0  0  0  0
    4.5000   -0.5223   -0.0757 N   0  0  0  0  0  0  0  0  0  0  0  0
    1.0203   -0.8143   -0.0288 C   0  0  0  0  0  0  0  0  0  0  0  0
    1.6721    1.5252    0.0123 C   0  0  0  0  0  0  0  0  0  0  0  0
   -0.3285   -0.4393   -0.0069 C   0  0  0  0  0  0  0  0  0  0  0  0
    0.3357    1.8919    0.0441 C   0  0  0  0  0  0  0  0  0  0  0  0
   -0.6687    0.9199    0.0350 C   0  0  0  0  0  0  0  0  0  0  0  0
   -1.3732   -1.5218   -0.0335 N   0  3  0  0  0  0  0  0  0  0  0  0
   -2.2563    1.4428    0.0911 Cl  0  0  0  0  0  0  0  0  0  0  0  0
   -2.4217   -1.3208   -0.6075 O   0  0  0  0  0  0  0  0  0  0  0  0
   -1.1297   -2.5777    0.5125 O   0  5  0  0  0  0  0  0  0  0  0  0
  1  2  1  0  0  0  0
  1  3  3  0  0  0  0
  2  4  1  0  0  0  0
  2  5  2  0  0  0  0
  4  6  2  0  0  0  0
  7  5  1  0  0  0  0
  6  8  1  0  0  0  0
  6  9  1  0  0  0  0
  8  7  2  0  0  0  0
  8 10  1  0  0  0  0
  9 11  2  0  0  0  0
  9 12  1  0  0  0  0
M  CHG  2   9   1  12  -1
M  END
>  <Name>
Benzonitrile, 4-chloro-3-nitro-

>  <IGC50>
4.71

>  <CAS>
939-80-0

>  <SET>
ws

>  <Species>
Tetrahymena pyriformis

>  <Test duration>
48h

$$$$

  Mrv1808 07152009202D          

 11 11  0  0  0  0            999 V2000
    2.4763   -1.4297    0.0000 N   0  0  0  0  0  0  0  0  0  0  0  0
    2.0645   -2.1446    0.0000 C   0  0  0  0  0  0  0  0  0  0  0  0
    2.0645   -0.7148    0.0000 C   0  0  0  0  0  0  0  0  0  0  0  0
    2.4763   -2.8595    0.0000 Cl  0  0  0  0  0  0  0  0  0  0  0  0
    1.2382   -2.1446    0.0000 C   0  0  0  0  0  0  0  0  0  0  0  0
    1.2382   -0.7148    0.0000 C   0  0  0  0  0  0  0  0  0  0  0  0
    2.4763    0.0000    0.0000 Cl  0  0  0  0  0  0  0  0  0  0  0  0
    0.8264   -2.8595    0.0000 Cl  0  0  0  0  0  0  0  0  0  0  0  0
    0.8264   -1.4297    0.0000 C   0  0  0  0  0  0  0  0  0  0  0  0
    0.8264    0.0000    0.0000 Cl  0  0  0  0  0  0  0  0  0  0  0  0
    0.0000   -1.4297    0.0000 Cl  0  0  0  0  0  0  0  0  0  0  0  0
  1  2  2  0  0  0  0
  1  3  1  0  0  0  0
  2  4  1  0  0  0  0
  2  5  1  0  0  0  0
  6  3  2  0  0  0  0
  3  7  1  0  0  0  0
  5  8  1  0  0  0  0
  5  9  2  0  0  0  0
  9  6  1  0  0  0  0
  6 10  1  0  0  0  0
  9 11  1  0  0  0  0
M  END
>  <Name>
Pyridine, 2,3,4,5,6-pentachloro-

>  <IGC50>
4.71

>  <CAS>
2176-62-7

>  <SET>
ws

>  <Species>
Tetrahymena pyriformis

>  <Test duration>
48h

$$$$

  Mrv1808 07152009202D          

 16 18  0  0  0  0            999 V2000
    2.4260    2.1750    0.0000 C   0  0  0  0  0  0  0  0  0  0  0  0
    2.8443    2.8861    0.0000 C   0  0  0  0  0  0  0  0  0  0  0  0
    1.6313    2.1750    0.0000 C   0  0  0  0  0  0  0  0  0  0  0  0
    2.8443    1.4640    0.0000 C   0  0  0  0  0  0  0  0  0  0  0  0
    2.4260    3.5972    0.0000 C   0  0  0  0  0  0  0  0  0  0  0  0
    1.2130    2.8861    0.0000 C   0  0  0  0  0  0  0  0  0  0  0  0
    1.2130    1.4640    0.0000 C   0  0  0  0  0  0  0  0  0  0  0  0
    2.4260    0.7529    0.0000 C   0  0  0  0  0  0  0  0  0  0  0  0
    1.6313    3.5972    0.0000 C   0  0  0  0  0  0  0  0  0  0  0  0
    1.6313    0.7529    0.0000 C   0  0  0  0  0  0  0  0  0  0  0  0
    0.3764    1.4640    0.0000 C   0  0  0  0  0  0  0  0  0  0  0  0
    2.8861    0.0000    0.0000 C   0  0  0  0  0  0  0  0  0  0  0  0
    1.2130    0.0418    0.0000 C   0  0  0  0  0  0  0  0  0  0  0  0
    0.0000    0.7948    0.0000 C   0  0  0  0  0  0  0  0  0  0  0  0
    3.7227    0.0000    0.0000 O   0  0  0  0  0  0  0  0  0  0  0  0
    0.3764    0.0418    0.0000 C   0  0  0  0  0  0  0  0  0  0  0  0
  1  2  2  0  0  0  0
  1  3  1  0  0  0  0
  4  1  1  0  0  0  0
  2  5  1  0  0  0  0
  6  3  2  0  0  0  0
  3  7  1  0  0  0  0
  8  4  2  0  0  0  0
  5  9  2  0  0  0  0
  9  6  1  0  0  0  0
 10  7  2  0  0  0  0
  7 11  1  0  0  0  0
 10  8  1  0  0  0  0
  8 12  1  0  0  0  0
 13 10  1  0  0  0  0
 11 14  2  0  0  0  0
 12 15  2  0  0  0  0
 16 13  2  0  0  0  0
 14 16  1  0  0  0  0
M  END
>  <Name>
Phenanthrene-9-carbaldehyde

>  <IGC50>
4.708

>  <CAS>
4707-71-5

>  <SET>
ws

>  <Species>
Tetrahymena pyriformis

>  <Test duration>
48h

$$$$

  Mrv1808 07152009202D          

  8  7  0  0  0  0            999 V2000
    4.4551    2.5988    0.0000 S   0  0  0  0  0  0  0  0  0  0  0  0
    3.8776    2.0213    0.0000 C   0  0  0  0  0  0  0  0  0  0  0  0
    3.3001    1.4438    0.0000 N   0  0  0  0  0  0  0  0  0  0  0  0
    2.4751    1.4438    0.0000 C   0  0  0  0  0  0  0  0  0  0  0  0
    2.0626    0.7012    0.0000 C   0  0  0  0  0  0  0  0  0  0  0  0
    1.2375    0.7012    0.0000 C   0  0  0  0  0  0  0  0  0  0  0  0
    0.8250    0.0000    0.0000 C   0  0  0  0  0  0  0  0  0  0  0  0
    0.0000    0.0000    0.0000 C   0  0  0  0  0  0  0  0  0  0  0  0
  1  2  2  0  0  0  0
  2  3  2  0  0  0  0
  3  4  1  0  0  0  0
  4  5  1  0  0  0  0
  5  6  1  0  0  0  0
  6  7  1  0  0  0  0
  7  8  1  0  0  0  0
M  END
>  <Name>
Pentyl isothiocyanate

>  <IGC50>
4.706

>  <CAS>
629-12-9

>  <SET>
ws

>  <Species>
Tetrahymena pyriformis

>  <Test duration>
48h

$$$$

  Mrv1808 07152009202D          

  7  6  0  0  0  0            999 V2000
    1.4222    0.8366    0.0000 C   0  0  0  0  0  0  0  0  0  0  0  0
    2.1332    0.4183    0.0000 O   0  0  0  0  0  0  0  0  0  0  0  0
    1.4222    1.6313    0.0000 O   0  0  0  0  0  0  0  0  0  0  0  0
    0.7111    0.4183    0.0000 C   0  0  0  0  0  0  0  0  0  0  0  0
    2.8443    0.8366    0.0000 C   0  0  0  0  0  0  0  0  0  0  0  0
    0.0000    0.0000    0.0000 C   0  0  0  0  0  0  0  0  0  0  0  0
    3.5972    0.4183    0.0000 C   0  0  0  0  0  0  0  0  0  0  0  0
  1  2  1  0  0  0  0
  1  3  2  0  0  0  0
  1  4  1  0  0  0  0
  2  5  1  0  0  0  0
  4  6  3  0  0  0  0
  5  7  1  0  0  0  0
M  END
>  <Name>
ethyl prop-2-ynoate

>  <IGC50>
4.7

>  <CAS>
623-47-2

>  <SET>
ws

>  <Species>
Tetrahymena pyriformis

>  <Test duration>
48h

$$$$

  Mrv1808 07152009203D          

 16 15  0  0  0  0            999 V2000
   -3.4463   -0.4950    0.0008 O   0  0  0  0  0  0  0  0  0  0  0  0
   -2.3117    0.3590   -0.0158 C   0  0  0  0  0  0  0  0  0  0  0  0
   -4.6673    0.1295    0.0280 C   0  0  0  0  0  0  0  0  0  0  0  0
   -1.0351   -0.4726   -0.0453 C   0  0  0  0  0  0  0  0  0  0  0  0
   -4.8427    1.3405    0.0387 O   0  0  0  0  0  0  0  0  0  0  0  0
   -5.7581   -0.9129    0.0414 C   0  0  0  0  0  0  0  0  0  0  0  0
    0.2233    0.3994   -0.0845 C   0  0  0  0  0  0  0  0  0  0  0  0
   -7.0963   -0.3107    0.0472 C   0  0  0  0  0  0  0  0  0  0  0  0
    1.4926   -0.4565   -0.0800 C   0  0  0  0  0  0  0  0  0  0  0  0
   -8.1563    0.1616    0.0524 N   0  0  0  0  0  0  0  0  0  0  0  0
    2.7492    0.4167   -0.0890 C   0  0  0  0  0  0  0  0  0  0  0  0
    4.0508   -0.3896   -0.1153 C   0  0  0  0  0  0  0  0  0  0  0  0
    5.3075    0.4812   -0.0495 C   0  0  0  0  0  0  0  0  0  0  0  0
    6.5739   -0.3772   -0.0053 C   0  0  0  0  0  0  0  0  0  0  0  0
    7.8293    0.4886    0.0991 C   0  0  0  0  0  0  0  0  0  0  0  0
    9.0872   -0.3618    0.1770 C   0  0  0  0  0  0  0  0  0  0  0  0
  1  2  1  0  0  0  0
  1  3  1  0  0  0  0
  4  2  1  0  0  0  0
  5  3  2  0  0  0  0
  3  6  1  0  0  0  0
  7  4  1  0  0  0  0
  6  8  1  0  0  0  0
  9  7  1  0  0  0  0
 10  8  3  0  0  0  0
 11  9  1  0  0  0  0
 11 12  1  0  0  0  0
 12 13  1  0  0  0  0
 13 14  1  0  0  0  0
 14 15  1  0  0  0  0
 15 16  1  0  0  0  0
M  END
>  <Name>
decyl 2-cyanoacetate

>  <IGC50>
4.7

>  <CAS>
17686-43-0

>  <SET>
ws

>  <Species>
Tetrahymena pyriformis

>  <Test duration>
48h

$$$$

  Mrv1808 07152009202D          

 25 28  0  0  0  0            999 V2000
    3.6685   -3.4746    0.0000 O   0  0  0  0  0  0  0  0  0  0  0  0
    2.9527   -3.0645    0.0000 C   0  0  0  0  0  0  0  0  0  0  0  0
    2.3264   -3.5939    0.0000 O   0  0  0  0  0  0  0  0  0  0  0  0
    2.8110   -2.2518    0.0000 C   0  0  0  0  0  0  0  0  0  0  0  0
    1.5509   -3.3105    0.0000 C   0  0  0  0  0  0  0  0  0  0  0  0
    2.0355   -1.9684    0.0000 C   0  0  0  0  0  0  0  0  0  0  0  0
    3.4970   -1.4316    0.0000 C   0  0  0  0  0  0  0  0  0  0  0  0
    0.9171   -3.8400    0.0000 C   0  0  0  0  0  0  0  0  0  0  0  0
    1.4092   -2.4979    0.0000 C   0  0  0  0  0  0  0  0  0  0  0  0
    1.8939   -1.1557    0.0000 O   0  0  0  0  0  0  0  0  0  0  0  0
    4.5707   -1.4316    0.0000 C   0  0  0  0  0  0  0  0  0  0  0  0
    0.1417   -3.5566    0.0000 C   0  0  0  0  0  0  0  0  0  0  0  0
    0.6338   -2.2145    0.0000 C   0  0  0  0  0  0  0  0  0  0  0  0
    4.9807   -2.1399    0.0000 C   0  0  0  0  0  0  0  0  0  0  0  0
    4.9807   -0.7158    0.0000 C   0  0  0  0  0  0  0  0  0  0  0  0
    0.0000   -2.7439    0.0000 C   0  0  0  0  0  0  0  0  0  0  0  0
    4.7049   -2.9154    0.0000 O   0  0  0  0  0  0  0  0  0  0  0  0
    5.8084   -2.1399    0.0000 C   0  0  0  0  0  0  0  0  0  0  0  0
    5.8084   -0.7158    0.0000 O   0  0  0  0  0  0  0  0  0  0  0  0
    4.5707    0.0000    0.0000 O   0  0  0  0  0  0  0  0  0  0  0  0
    6.2185   -2.8557    0.0000 C   0  0  0  0  0  0  0  0  0  0  0  0
    6.2185   -1.4316    0.0000 C   0  0  0  0  0  0  0  0  0  0  0  0
    7.0461   -2.8557    0.0000 C   0  0  0  0  0  0  0  0  0  0  0  0
    7.0461   -1.4316    0.0000 C   0  0  0  0  0  0  0  0  0  0  0  0
    7.4562   -2.1399    0.0000 C   0  0  0  0  0  0  0  0  0  0  0  0
  1  2  2  0  0  0  0
  2  3  1  0  0  0  0
  2  4  1  0  0  0  0
  3  5  1  0  0  0  0
  6  4  2  0  0  0  0
  4  7  1  0  0  0  0
  5  8  2  0  0  0  0
  5  9  1  0  0  0  0
  9  6  1  0  0  0  0
  6 10  1  0  0  0  0
  7 11  1  0  0  0  0
  8 12  1  0  0  0  0
 13  9  2  0  0  0  0
 11 14  2  0  0  0  0
 11 15  1  0  0  0  0
 12 16  2  0  0  0  0
 16 13  1  0  0  0  0
 14 17  1  0  0  0  0
 14 18  1  0  0  0  0
 19 15  1  0  0  0  0
 15 20  2  0  0  0  0
 18 21  2  0  0  0  0
 18 22  1  0  0  0  0
 22 19  1  0  0  0  0
 21 23  1  0  0  0  0
 24 22  2  0  0  0  0
 23 25  2  0  0  0  0
 25 24  1  0  0  0  0
M  END
>  <Name>
2H-1-Benzopyran-2-one, 3,3'-methylenebis(4-hydroxy-

>  <IGC50>
4.7

>  <CAS>
66-76-2

>  <SET>
ws

>  <Species>
Tetrahymena pyriformis

>  <Test duration>
48h

$$$$

  Mrv1808 07152009202D          

 12 12  0  0  0  0            999 V2000
    0.0000   -1.4265    0.0000 O   0  0  0  0  0  0  0  0  0  0  0  0
    0.8236   -1.4265    0.0000 C   0  0  0  0  0  0  0  0  0  0  0  0
    1.2354   -0.7116    0.0000 C   0  0  0  0  0  0  0  0  0  0  0  0
    1.2354   -2.1414    0.0000 C   0  0  0  0  0  0  0  0  0  0  0  0
    0.8236    0.0000    0.0000 O   0  0  0  0  0  0  0  0  0  0  0  0
    2.0590   -0.7116    0.0000 C   0  0  0  0  0  0  0  0  0  0  0  0
    2.0590   -2.1414    0.0000 C   0  0  0  0  0  0  0  0  0  0  0  0
    0.8236   -2.8530    0.0000 Cl  0  0  0  0  0  0  0  0  0  0  0  0
    2.4709    0.0000    0.0000 Cl  0  0  0  0  0  0  0  0  0  0  0  0
    2.4709   -1.4265    0.0000 C   0  0  0  0  0  0  0  0  0  0  0  0
    2.4709   -2.8530    0.0000 Cl  0  0  0  0  0  0  0  0  0  0  0  0
    3.2945   -1.4265    0.0000 Cl  0  0  0  0  0  0  0  0  0  0  0  0
  1  2  1  0  0  0  0
  2  3  2  0  0  0  0
  2  4  1  0  0  0  0
  3  5  1  0  0  0  0
  3  6  1  0  0  0  0
  7  4  2  0  0  0  0
  4  8  1  0  0  0  0
  6  9  1  0  0  0  0
  6 10  2  0  0  0  0
 10  7  1  0  0  0  0
  7 11  1  0  0  0  0
 10 12  1  0  0  0  0
M  END
>  <Name>
3,4,5,6-Tetrachloro-1,2-benzenediol  (9CI)

>  <IGC50>
4.7

>  <CAS>
1198-55-6

>  <SET>
ws

>  <Species>
Tetrahymena pyriformis

>  <Test duration>
48h

$$$$

  Mrv1808 07152009202D          

 12 11  0  0  0  0            999 V2000
    7.8715    0.0000    0.0000 C   0  0  0  0  0  0  0  0  0  0  0  0
    7.1552   -0.4093    0.0000 C   0  0  0  0  0  0  0  0  0  0  0  0
    6.4389    0.0000    0.0000 C   0  0  0  0  0  0  0  0  0  0  0  0
    5.7226   -0.4093    0.0000 C   0  0  0  0  0  0  0  0  0  0  0  0
    5.0062    0.0000    0.0000 C   0  0  0  0  0  0  0  0  0  0  0  0
    4.2900   -0.4093    0.0000 C   0  0  0  0  0  0  0  0  0  0  0  0
    3.5816    0.0000    0.0000 C   0  0  0  0  0  0  0  0  0  0  0  0
    2.8652   -0.4093    0.0000 C   0  0  0  0  0  0  0  0  0  0  0  0
    2.1489    0.0000    0.0000 C   0  0  0  0  0  0  0  0  0  0  0  0
    1.4326   -0.4093    0.0000 C   0  0  0  0  0  0  0  0  0  0  0  0
    0.7163    0.0000    0.0000 C   0  0  0  0  0  0  0  0  0  0  0  0
    0.0000   -0.4093    0.0000 O   0  0  0  0  0  0  0  0  0  0  0  0
  1  2  1  0  0  0  0
  2  3  1  0  0  0  0
  3  4  1  0  0  0  0
  4  5  1  0  0  0  0
  5  6  1  0  0  0  0
  6  7  1  0  0  0  0
  7  8  1  0  0  0  0
  8  9  1  0  0  0  0
  9 10  1  0  0  0  0
 10 11  1  0  0  0  0
 11 12  2  0  0  0  0
M  END
>  <Name>
1-Undecanal

>  <IGC50>
4.69

>  <CAS>
112-44-7

>  <SET>
ws

>  <Species>
Tetrahymena pyriformis

>  <Test duration>
48h

$$$$

  Mrv1808 07152009202D          

 14 14  0  0  0  0            999 V2000
    1.2376    2.8464    0.0000 C   0  0  0  0  0  0  0  0  0  0  0  0
    0.8250    2.1451    0.0000 C   0  0  0  0  0  0  0  0  0  0  0  0
    2.0626    2.8464    0.0000 C   0  0  0  0  0  0  0  0  0  0  0  0
    1.2376    1.4025    0.0000 C   0  0  0  0  0  0  0  0  0  0  0  0
    0.0000    2.1451    0.0000 N   0  0  0  0  0  0  0  0  0  0  0  0
    2.4338    3.5476    0.0000 F   0  0  0  0  0  0  0  0  0  0  0  0
    2.4751    2.1451    0.0000 C   0  0  0  0  0  0  0  0  0  0  0  0
    2.0626    1.4025    0.0000 C   0  0  0  0  0  0  0  0  0  0  0  0
    0.7837    0.7013    0.0000 N   0  0  0  0  0  0  0  0  0  0  0  0
    3.3002    2.1451    0.0000 N   0  0  0  0  0  0  0  0  0  0  0  0
    1.1963    0.0000    0.0000 O   0  0  0  0  0  0  0  0  0  0  0  0
    0.0000    0.4950    0.0000 O   0  0  0  0  0  0  0  0  0  0  0  0
    3.7127    2.8464    0.0000 O   0  0  0  0  0  0  0  0  0  0  0  0
    3.7127    1.4438    0.0000 O   0  0  0  0  0  0  0  0  0  0  0  0
  1  2  2  0  0  0  0
  3  1  1  0  0  0  0
  2  4  1  0  0  0  0
  2  5  1  0  0  0  0
  3  6  1  0  0  0  0
  7  3  2  0  0  0  0
  4  8  2  0  0  0  0
  4  9  1  0  0  0  0
  7 10  1  0  0  0  0
  8  7  1  0  0  0  0
  9 11  2  0  0  0  0
  9 12  2  0  0  0  0
 10 13  2  0  0  0  0
 10 14  2  0  0  0  0
M  END
>  <Name>
Benzenamine, 5-fluoro-2,4-dinitro-

>  <IGC50>
4.69

>  <CAS>
367-81-7

>  <SET>
ws

>  <Species>
Tetrahymena pyriformis

>  <Test duration>
48h

$$$$

  Mrv1808 07152009202D          

  9  9  0  0  0  0            999 V2000
    1.4640    2.5097    0.0000 Br  0  0  0  0  0  0  0  0  0  0  0  0
    1.4640    1.6731    0.0000 C   0  0  0  0  0  0  0  0  0  0  0  0
    0.7529    1.2548    0.0000 C   0  0  0  0  0  0  0  0  0  0  0  0
    2.1750    1.2548    0.0000 C   0  0  0  0  0  0  0  0  0  0  0  0
    0.0000    1.6731    0.0000 O   0  0  0  0  0  0  0  0  0  0  0  0
    0.7529    0.4183    0.0000 C   0  0  0  0  0  0  0  0  0  0  0  0
    2.1750    0.4183    0.0000 C   0  0  0  0  0  0  0  0  0  0  0  0
    1.4640    0.0000    0.0000 C   0  0  0  0  0  0  0  0  0  0  0  0
    2.9279    0.0000    0.0000 O   0  0  0  0  0  0  0  0  0  0  0  0
  1  2  1  0  0  0  0
  3  2  2  0  0  0  0
  2  4  1  0  0  0  0
  3  5  1  0  0  0  0
  6  3  1  0  0  0  0
  4  7  2  0  0  0  0
  8  6  2  0  0  0  0
  7  8  1  0  0  0  0
  7  9  1  0  0  0  0
M  END
>  <Name>
1,4-Benzenediol, 2-bromo-

>  <IGC50>
4.68

>  <CAS>
583-69-7

>  <SET>
ws

>  <Species>
Tetrahymena pyriformis

>  <Test duration>
48h

$$$$

  Mrv1808 07152009203D          

 13 13  0  0  0  0            999 V2000
   10.3549    2.3540    1.5320 C   0  0  0  0  0  0  0  0  0  0  0  0
    9.0726    1.8315    1.4058 C   0  0  0  0  0  0  0  0  0  0  0  0
   10.5539    3.7309    1.5044 C   0  0  0  0  0  0  0  0  0  0  0  0
    7.9854    2.6979    1.2526 C   0  0  0  0  0  0  0  0  0  0  0  0
    9.4713    4.5921    1.3518 C   0  0  0  0  0  0  0  0  0  0  0  0
    8.1845    4.0825    1.2262 C   0  0  0  0  0  0  0  0  0  0  0  0
    6.6776    2.1693    1.1249 C   0  0  0  0  0  0  0  0  0  0  0  0
    5.5772    1.7191    1.0183 C   0  0  0  0  0  0  0  0  0  0  0  0
    4.2651    1.1501    0.8862 C   0  0  0  0  0  0  0  0  0  0  0  0
    3.2805    2.0683    1.1184 O   0  0  0  0  0  0  0  0  0  0  0  0
    3.9881    0.0000    0.6061 O   0  0  0  0  0  0  0  0  0  0  0  0
    1.9220    1.6340    1.0192 C   0  0  0  0  0  0  0  0  0  0  0  0
    1.0616    2.8420    1.3352 C   0  0  0  0  0  0  0  0  0  0  0  0
  1  2  2  0  0  0  0
  3  1  1  0  0  0  0
  2  4  1  0  0  0  0
  5  3  2  0  0  0  0
  4  6  2  0  0  0  0
  4  7  1  0  0  0  0
  6  5  1  0  0  0  0
  7  8  3  0  0  0  0
  8  9  1  0  0  0  0
  9 10  1  0  0  0  0
  9 11  2  0  0  0  0
 10 12  1  0  0  0  0
 12 13  1  0  0  0  0
M  END
>  <Name>
2-Propynoic acid, 3-phenyl-, ethyl ester (9CI)

>  <IGC50>
4.67

>  <CAS>
2216-94-6

>  <SET>
ws

>  <Species>
Tetrahymena pyriformis

>  <Test duration>
48h

$$$$

  Mrv1808 07152009202D          

 15 14  0  0  0  0            999 V2000
    0.7525    0.0000    0.0000 C   0  0  0  0  0  0  0  0  0  0  0  0
    1.4644   -0.4170    0.0000 C   0  0  0  0  0  0  0  0  0  0  0  0
    0.0000   -0.4170    0.0000 O   0  0  0  0  0  0  0  0  0  0  0  0
    2.2067    0.0000    0.0000 C   0  0  0  0  0  0  0  0  0  0  0  0
    2.9084   -0.4170    0.0000 C   0  0  0  0  0  0  0  0  0  0  0  0
    3.6609    0.0000    0.0000 C   0  0  0  0  0  0  0  0  0  0  0  0
    4.3727   -0.4170    0.0000 C   0  0  0  0  0  0  0  0  0  0  0  0
    5.0846    0.0000    0.0000 C   0  0  0  0  0  0  0  0  0  0  0  0
    5.8269   -0.4170    0.0000 C   0  0  0  0  0  0  0  0  0  0  0  0
    6.5489    0.0000    0.0000 C   0  0  0  0  0  0  0  0  0  0  0  0
    7.2913   -0.4170    0.0000 C   0  0  0  0  0  0  0  0  0  0  0  0
    7.9929    0.0000    0.0000 C   0  0  0  0  0  0  0  0  0  0  0  0
    8.7454   -0.4170    0.0000 C   0  0  0  0  0  0  0  0  0  0  0  0
    9.4573    0.0000    0.0000 C   0  0  0  0  0  0  0  0  0  0  0  0
   10.1691   -0.4170    0.0000 C   0  0  0  0  0  0  0  0  0  0  0  0
  1  2  1  0  0  0  0
  1  3  1  0  0  0  0
  2  4  1  0  0  0  0
  4  5  1  0  0  0  0
  5  6  1  0  0  0  0
  6  7  1  0  0  0  0
  7  8  1  0  0  0  0
  8  9  1  0  0  0  0
  9 10  1  0  0  0  0
 10 11  1  0  0  0  0
 11 12  1  0  0  0  0
 12 13  1  0  0  0  0
 13 14  1  0  0  0  0
 14 15  1  0  0  0  0
M  END
>  <Name>
1-Tetradecanol

>  <IGC50>
4.67

>  <CAS>
112-72-1

>  <SET>
ws

>  <Species>
Tetrahymena pyriformis

>  <Test duration>
48h

$$$$

  Mrv1808 07152009202D          

  7  7  0  0  0  0            999 V2000
    0.7160   -0.8250    0.0000 C   0  0  0  0  0  0  0  0  0  0  0  0
    1.4320   -1.2437    0.0000 C   0  0  0  0  0  0  0  0  0  0  0  0
    0.0000   -1.2437    0.0000 C   0  0  0  0  0  0  0  0  0  0  0  0
    0.7160    0.0000    0.0000 S   0  0  0  0  0  0  0  0  0  0  0  0
    1.4320   -2.0687    0.0000 C   0  0  0  0  0  0  0  0  0  0  0  0
    0.0000   -2.0687    0.0000 C   0  0  0  0  0  0  0  0  0  0  0  0
    0.7160   -2.4775    0.0000 C   0  0  0  0  0  0  0  0  0  0  0  0
  1  2  2  0  0  0  0
  1  3  1  0  0  0  0
  1  4  1  0  0  0  0
  2  5  1  0  0  0  0
  6  3  2  0  0  0  0
  5  7  2  0  0  0  0
  7  6  1  0  0  0  0
M  END
>  <Name>
Benzenethiol

>  <IGC50>
4.66

>  <CAS>
108-98-5

>  <SET>
ws

>  <Species>
Tetrahymena pyriformis

>  <Test duration>
48h

$$$$

  Mrv1808 07152009203D          

 13 14  0  0  0  0            999 V2000
   -3.1038    0.0023    0.0032 C   0  0  0  0  0  0  0  0  0  0  0  0
   -4.5889   -0.0046   -0.0122 C   0  0  0  0  0  0  0  0  0  0  0  0
   -2.3997   -1.1002    0.4903 C   0  0  0  0  0  0  0  0  0  0  0  0
   -2.3989    1.1054   -0.4808 C   0  0  0  0  0  0  0  0  0  0  0  0
   -1.0109   -1.1033    0.4882 C   0  0  0  0  0  0  0  0  0  0  0  0
   -1.0099    1.1069   -0.4794 C   0  0  0  0  0  0  0  0  0  0  0  0
   -0.3057    0.0011    0.0034 C   0  0  0  0  0  0  0  0  0  0  0  0
    1.1630   -0.0001    0.0017 C   0  0  0  0  0  0  0  0  0  0  0  0
    1.8683    1.1053    0.4846 C   0  0  0  0  0  0  0  0  0  0  0  0
    1.8649   -1.1063   -0.4842 C   0  0  0  0  0  0  0  0  0  0  0  0
    3.2582    1.1005    0.4824 C   0  0  0  0  0  0  0  0  0  0  0  0
    3.2548   -1.1032   -0.4879 C   0  0  0  0  0  0  0  0  0  0  0  0
    3.9531   -0.0017   -0.0044 C   0  0  0  0  0  0  0  0  0  0  0  0
  1  2  1  0  0  0  0
  3  1  1  0  0  0  0
  4  1  2  0  0  0  0
  5  3  2  0  0  0  0
  6  4  1  0  0  0  0
  7  5  1  0  0  0  0
  6  7  2  0  0  0  0
  8  7  1  0  0  0  0
  9  8  1  0  0  0  0
 10  8  2  0  0  0  0
 11  9  2  0  0  0  0
 12 10  1  0  0  0  0
 13 11  1  0  0  0  0
 12 13  2  0  0  0  0
M  END
>  <Name>
1,1'-Biphenyl, 4-methyl-

>  <IGC50>
4.66

>  <CAS>
644-08-6

>  <SET>
ws

>  <Species>
Tetrahymena pyriformis

>  <Test duration>
48h

$$$$

  Mrv1808 07152009203D          

  7  6  0  0  0  0            999 V2000
    0.6575    1.3692    0.0084 O   0  0  0  0  0  0  0  0  0  0  0  0
    0.5661    0.1446    0.0032 C   0  0  0  0  0  0  0  0  0  0  0  0
   -0.7669   -0.5834    0.0028 C   0  0  0  0  0  0  0  0  0  0  0  0
    1.7725   -0.7298   -0.0023 C   0  0  0  0  0  0  0  0  0  0  0  0
   -1.9538    0.3765   -0.0217 C   0  0  0  0  0  0  0  0  0  0  0  0
    3.0012   -0.2057   -0.0019 C   0  0  0  0  0  0  0  0  0  0  0  0
   -3.2765   -0.3714    0.0116 C   0  0  0  0  0  0  0  0  0  0  0  0
  1  2  2  0  0  0  0
  3  2  1  0  0  0  0
  2  4  1  0  0  0  0
  5  3  1  0  0  0  0
  4  6  2  0  0  0  0
  5  7  1  0  0  0  0
M  END
>  <Name>
hex-1-en-3-one

>  <IGC50>
4.66

>  <CAS>
1629-60-3

>  <SET>
ws

>  <Species>
Tetrahymena pyriformis

>  <Test duration>
48h

$$$$

  Mrv1808 07152009202D          

 12 12  0  0  0  0            999 V2000
    2.1750    1.2548    0.0000 C   0  0  0  0  0  0  0  0  0  0  0  0
    2.1750    2.0913    0.0000 C   0  0  0  0  0  0  0  0  0  0  0  0
    1.4639    0.8365    0.0000 C   0  0  0  0  0  0  0  0  0  0  0  0
    1.4639    2.5096    0.0000 C   0  0  0  0  0  0  0  0  0  0  0  0
    2.8860    2.4678    0.0000 N   0  0  0  0  0  0  0  0  0  0  0  0
    0.7528    1.2548    0.0000 C   0  0  0  0  0  0  0  0  0  0  0  0
    1.4639    0.0000    0.0000 Cl  0  0  0  0  0  0  0  0  0  0  0  0
    0.7528    2.0913    0.0000 C   0  0  0  0  0  0  0  0  0  0  0  0
    1.4639    3.3461    0.0000 N   0  0  0  0  0  0  0  0  0  0  0  0
    3.5970    2.0913    0.0000 O   0  0  0  0  0  0  0  0  0  0  0  0
    2.8860    3.3043    0.0000 O   0  0  0  0  0  0  0  0  0  0  0  0
    0.0000    0.8365    0.0000 Cl  0  0  0  0  0  0  0  0  0  0  0  0
  2  1  2  0  0  0  0
  1  3  1  0  0  0  0
  4  2  1  0  0  0  0
  2  5  1  0  0  0  0
  3  6  2  0  0  0  0
  3  7  1  0  0  0  0
  8  4  2  0  0  0  0
  4  9  1  0  0  0  0
  5 10  2  0  0  0  0
  5 11  2  0  0  0  0
  6  8  1  0  0  0  0
  6 12  1  0  0  0  0
M  END
>  <Name>
4,5-Dichloro-2-nitroaniline

>  <IGC50>
4.66

>  <CAS>
6641-64-1

>  <SET>
ws

>  <Species>
Tetrahymena pyriformis

>  <Test duration>
48h

$$$$

  Mrv1808 07152009203D          

 13 12  0  0  0  0            999 V2000
    4.9553    3.7903    6.3217 C   0  0  0  0  0  0  0  0  0  0  0  0
    4.4051    3.2674    5.0033 C   0  0  0  0  0  0  0  0  0  0  0  0
    5.7311    2.7170    7.0679 C   0  0  0  0  0  0  0  0  0  0  0  0
    3.3618    2.1820    5.2265 C   0  0  0  0  0  0  0  0  0  0  0  0
    6.1326    3.1736    8.4607 C   0  0  0  0  0  0  0  0  0  0  0  0
    2.9232    1.5099    3.9378 C   0  0  0  0  0  0  0  0  0  0  0  0
    7.0664    2.1728    9.1249 C   0  0  0  0  0  0  0  0  0  0  0  0
    2.0141    2.3930    3.0982 C   0  0  0  0  0  0  0  0  0  0  0  0
    8.4023    2.0922    8.4008 C   0  0  0  0  0  0  0  0  0  0  0  0
    1.7247    1.7373    1.7357 C   0  0  2  0  0  0  0  0  0  0  0  0
    9.2703    0.9824    8.9452 C   0  0  0  0  0  0  0  0  0  0  0  0
    2.9940    1.6649    0.8924 C   0  0  0  0  0  0  0  0  0  0  0  0
    0.7771    2.4776    0.9885 O   0  0  0  0  0  0  0  0  0  0  0  0
  1  2  1  0  0  0  0
  1  3  1  0  0  0  0
  2  4  1  0  0  0  0
  3  5  1  0  0  0  0
  4  6  1  0  0  0  0
  5  7  1  0  0  0  0
  6  8  1  0  0  0  0
  7  9  1  0  0  0  0
  8 10  1  0  0  0  0
  9 11  1  0  0  0  0
 10 12  1  0  0  0  0
 10 13  1  0  0  0  0
M  END
>  <Name>
dodecan-2-ol

>  <IGC50>
4.66

>  <CAS>
10203-28-8

>  <SET>
ws

>  <Species>
Tetrahymena pyriformis

>  <Test duration>
48h

$$$$

  Mrv1808 07152009202D          

 20 19  0  0  0  0            999 V2000
    4.3501    1.2548    0.0000 C   0  0  0  0  0  0  0  0  0  0  0  0
    3.5973    0.8366    0.0000 C   0  0  0  0  0  0  0  0  0  0  0  0
    5.0612    0.8366    0.0000 C   0  0  0  0  0  0  0  0  0  0  0  0
    2.8861    1.2548    0.0000 O   0  0  0  0  0  0  0  0  0  0  0  0
    3.5973    0.0000    0.0000 O   0  0  0  0  0  0  0  0  0  0  0  0
    5.7723    1.2548    0.0000 C   0  0  0  0  0  0  0  0  0  0  0  0
    2.1750    0.8366    0.0000 C   0  0  0  0  0  0  0  0  0  0  0  0
    6.5251    0.8366    0.0000 C   0  0  0  0  0  0  0  0  0  0  0  0
    1.4221    1.2548    0.0000 C   0  0  0  0  0  0  0  0  0  0  0  0
    7.2363    1.2548    0.0000 C   0  0  0  0  0  0  0  0  0  0  0  0
    0.7111    0.8366    0.0000 C   0  0  0  0  0  0  0  0  0  0  0  0
    7.9474    0.8366    0.0000 C   0  0  0  0  0  0  0  0  0  0  0  0
    0.0000    1.2548    0.0000 C   0  0  0  0  0  0  0  0  0  0  0  0
    8.7002    1.2548    0.0000 C   0  0  0  0  0  0  0  0  0  0  0  0
    9.4113    0.8366    0.0000 O   0  0  0  0  0  0  0  0  0  0  0  0
    8.7002    2.0914    0.0000 O   0  0  0  0  0  0  0  0  0  0  0  0
   10.1224    1.2548    0.0000 C   0  0  0  0  0  0  0  0  0  0  0  0
   10.8753    0.8366    0.0000 C   0  0  0  0  0  0  0  0  0  0  0  0
   11.5864    1.2548    0.0000 C   0  0  0  0  0  0  0  0  0  0  0  0
   12.2974    0.8366    0.0000 C   0  0  0  0  0  0  0  0  0  0  0  0
  1  2  1  0  0  0  0
  1  3  1  0  0  0  0
  2  4  1  0  0  0  0
  2  5  2  0  0  0  0
  3  6  1  0  0  0  0
  4  7  1  0  0  0  0
  6  8  1  0  0  0  0
  7  9  1  0  0  0  0
  8 10  1  0  0  0  0
  9 11  1  0  0  0  0
 10 12  1  0  0  0  0
 11 13  1  0  0  0  0
 12 14  1  0  0  0  0
 14 15  1  0  0  0  0
 14 16  2  0  0  0  0
 15 17  1  0  0  0  0
 17 18  1  0  0  0  0
 18 19  1  0  0  0  0
 19 20  1  0  0  0  0
M  END
>  <Name>
Octanedioic acid, dibutyl ester

>  <IGC50>
4.656

>  <CAS>
16090-77-0

>  <SET>
ws

>  <Species>
Tetrahymena pyriformis

>  <Test duration>
48h

$$$$

  Mrv1808 07152009202D          

 19 18  0  0  0  0            999 V2000
    2.1750    1.2548    0.0000 C   0  0  0  0  0  0  0  0  0  0  0  0
    1.4639    0.8365    0.0000 C   0  0  0  0  0  0  0  0  0  0  0  0
    2.9278    0.8365    0.0000 C   0  0  0  0  0  0  0  0  0  0  0  0
    0.7529    1.2548    0.0000 O   0  0  0  0  0  0  0  0  0  0  0  0
    1.4639    0.0000    0.0000 O   0  0  0  0  0  0  0  0  0  0  0  0
    3.6389    1.2548    0.0000 C   0  0  0  0  0  0  0  0  0  0  0  0
    0.0000    0.8365    0.0000 C   0  0  0  0  0  0  0  0  0  0  0  0
    4.3499    0.8365    0.0000 C   0  0  0  0  0  0  0  0  0  0  0  0
    5.1028    1.2548    0.0000 C   0  0  0  0  0  0  0  0  0  0  0  0
    5.8138    0.8365    0.0000 C   0  0  0  0  0  0  0  0  0  0  0  0
    6.5249    1.2548    0.0000 C   0  0  0  0  0  0  0  0  0  0  0  0
    7.2777    0.8365    0.0000 C   0  0  0  0  0  0  0  0  0  0  0  0
    7.9888    1.2548    0.0000 C   0  0  0  0  0  0  0  0  0  0  0  0
    8.6999    0.8365    0.0000 C   0  0  0  0  0  0  0  0  0  0  0  0
    9.4527    1.2548    0.0000 C   0  0  0  0  0  0  0  0  0  0  0  0
   10.1638    0.8365    0.0000 C   0  0  0  0  0  0  0  0  0  0  0  0
   10.8749    1.2548    0.0000 O   0  0  0  0  0  0  0  0  0  0  0  0
   10.1638    0.0000    0.0000 O   0  0  0  0  0  0  0  0  0  0  0  0
   11.6277    0.8365    0.0000 C   0  0  0  0  0  0  0  0  0  0  0  0
  1  2  1  0  0  0  0
  1  3  1  0  0  0  0
  2  4  1  0  0  0  0
  2  5  2  0  0  0  0
  3  6  1  0  0  0  0
  4  7  1  0  0  0  0
  6  8  1  0  0  0  0
  8  9  1  0  0  0  0
  9 10  1  0  0  0  0
 10 11  1  0  0  0  0
 11 12  1  0  0  0  0
 12 13  1  0  0  0  0
 13 14  1  0  0  0  0
 14 15  1  0  0  0  0
 15 16  1  0  0  0  0
 16 17  1  0  0  0  0
 16 18  2  0  0  0  0
 17 19  1  0  0  0  0
M  END
>  <Name>
Tridecanedioic acid, dimethyl ester

>  <IGC50>
4.654

>  <CAS>
1472-87-3

>  <SET>
ws

>  <Species>
Tetrahymena pyriformis

>  <Test duration>
48h

$$$$

  Mrv1808 07152009202D          

 12 11  0  0  0  0            999 V2000
    0.0000    0.3765    0.0000 C   0  0  0  0  0  0  0  0  0  0  0  0
    0.7111    0.7948    0.0000 C   0  0  0  0  0  0  0  0  0  0  0  0
    1.4640    0.3765    0.0000 C   0  0  0  0  0  0  0  0  0  0  0  0
    2.1333    0.8366    0.0000 C   0  0  0  0  0  0  0  0  0  0  0  0
    2.8443    0.4183    0.0000 C   0  0  0  0  0  0  0  0  0  0  0  0
    3.5973    0.8366    0.0000 C   0  0  0  0  0  0  0  0  0  0  0  0
    4.3084    0.4183    0.0000 C   0  0  0  0  0  0  0  0  0  0  0  0
    5.0194    0.8366    0.0000 C   0  0  0  0  0  0  0  0  0  0  0  0
    5.7724    0.4183    0.0000 C   0  0  0  0  0  0  0  0  0  0  0  0
    6.4835    0.8366    0.0000 C   0  0  0  0  0  0  0  0  0  0  0  0
    7.1946    0.4183    0.0000 C   0  0  0  0  0  0  0  0  0  0  0  0
    7.9475    0.0000    0.0000 N   0  0  0  0  0  0  0  0  0  0  0  0
  1  2  1  0  0  0  0
  2  3  1  0  0  0  0
  3  4  1  0  0  0  0
  4  5  1  0  0  0  0
  5  6  1  0  0  0  0
  6  7  1  0  0  0  0
  7  8  1  0  0  0  0
  8  9  1  0  0  0  0
  9 10  1  0  0  0  0
 10 11  1  0  0  0  0
 11 12  3  0  0  0  0
M  END
>  <Name>
Undecanenitrile

>  <IGC50>
4.65

>  <CAS>
2244-07-7

>  <SET>
ws

>  <Species>
Tetrahymena pyriformis

>  <Test duration>
48h

$$$$

  Mrv1808 07152009203D          

 13 12  0  0  0  0            999 V2000
   -3.8796    1.2041   -1.1015 O   0  0  0  0  0  0  0  0  0  0  0  0
   -2.7186    0.6635   -0.4666 C   0  0  1  0  0  0  0  0  0  0  0  0
   -2.0124    1.7900    0.3000 C   0  0  0  0  0  0  0  0  0  0  0  0
   -3.1504   -0.5404    0.3815 C   0  0  0  0  0  0  0  0  0  0  0  0
   -0.6864    1.4116    0.9655 C   0  0  0  0  0  0  0  0  0  0  0  0
   -3.9189   -1.6137   -0.3962 C   0  0  0  0  0  0  0  0  0  0  0  0
    0.3883    0.9793   -0.0351 C   0  0  0  0  0  0  0  0  0  0  0  0
   -4.3192   -2.7702    0.5078 C   0  0  0  0  0  0  0  0  0  0  0  0
    1.7140    0.5942    0.6310 C   0  0  0  0  0  0  0  0  0  0  0  0
    2.7804    0.1381   -0.3686 C   0  0  0  0  0  0  0  0  0  0  0  0
    4.1248   -0.1902    0.2889 C   0  0  0  0  0  0  0  0  0  0  0  0
    5.1839   -0.6707   -0.7039 C   0  0  0  0  0  0  0  0  0  0  0  0
    6.4941   -0.9957   -0.0028 C   0  0  0  0  0  0  0  0  0  0  0  0
  1  2  1  0  0  0  0
  3  2  1  0  0  0  0
  2  4  1  0  0  0  0
  5  3  1  0  0  0  0
  4  6  1  0  0  0  0
  5  7  1  0  0  0  0
  6  8  1  0  0  0  0
  7  9  1  0  0  0  0
  9 10  1  0  0  0  0
 10 11  1  0  0  0  0
 11 12  1  0  0  0  0
 12 13  1  0  0  0  0
M  END
>  <Name>
dodecan-4-ol

>  <IGC50>
4.65

>  <CAS>
10203-32-4

>  <SET>
ws

>  <Species>
Tetrahymena pyriformis

>  <Test duration>
48h

$$$$

  Mrv1808 07152009202D          

 14 14  0  0  0  0            999 V2000
    3.3001   -3.5715    0.0000 O   0  0  0  0  0  0  0  0  0  0  0  0
    2.8858   -2.8572    0.0000 C   0  0  0  0  0  0  0  0  0  0  0  0
    2.0608   -2.8572    0.0000 C   0  0  0  0  0  0  0  0  0  0  0  0
    3.3001   -2.1429    0.0000 C   0  0  0  0  0  0  0  0  0  0  0  0
    1.6501   -2.1429    0.0000 C   0  0  0  0  0  0  0  0  0  0  0  0
    2.8858   -1.4286    0.0000 C   0  0  0  0  0  0  0  0  0  0  0  0
    0.8250   -2.1429    0.0000 C   0  0  0  0  0  0  0  0  0  0  0  0
    2.0608   -1.4286    0.0000 C   0  0  0  0  0  0  0  0  0  0  0  0
    0.8250   -1.3179    0.0000 F   0  0  0  0  0  0  0  0  0  0  0  0
    0.8250   -2.9679    0.0000 F   0  0  0  0  0  0  0  0  0  0  0  0
    0.0000   -2.1429    0.0000 F   0  0  0  0  0  0  0  0  0  0  0  0
    1.6501   -0.7143    0.0000 N   0  3  0  0  0  0  0  0  0  0  0  0
    0.8250   -0.7143    0.0000 O   0  5  0  0  0  0  0  0  0  0  0  0
    2.0608    0.0000    0.0000 O   0  0  0  0  0  0  0  0  0  0  0  0
  1  2  1  0  0  0  0
  2  3  2  0  0  0  0
  2  4  1  0  0  0  0
  3  5  1  0  0  0  0
  6  4  2  0  0  0  0
  5  7  1  0  0  0  0
  5  8  2  0  0  0  0
  8  6  1  0  0  0  0
  7  9  1  0  0  0  0
  7 10  1  0  0  0  0
  7 11  1  0  0  0  0
  8 12  1  0  0  0  0
 12 13  1  0  0  0  0
 12 14  2  0  0  0  0
M  CHG  2  12   1  13  -1
M  END
>  <Name>
m-Cresol, alpha,alpha,alpha-trifluoro-4-nitro-

>  <IGC50>
4.65

>  <CAS>
88-30-2

>  <SET>
ws

>  <Species>
Tetrahymena pyriformis

>  <Test duration>
48h

$$$$

  Mrv1808 07152009202D          

 15 15  0  0  0  0            999 V2000
    3.5890    0.7013    0.0000 C   0  0  0  0  0  0  0  0  0  0  0  0
    3.1352    0.0000    0.0000 C   0  0  0  0  0  0  0  0  0  0  0  0
    4.0016    1.4026    0.0000 C   0  0  0  0  0  0  0  0  0  0  0  0
    4.2904    0.2888    0.0000 C   0  0  0  0  0  0  0  0  0  0  0  0
    2.8464    1.1139    0.0000 C   0  0  0  0  0  0  0  0  0  0  0  0
    2.1452    0.7013    0.0000 C   0  0  0  0  0  0  0  0  0  0  0  0
    2.8464    1.9389    0.0000 C   0  0  0  0  0  0  0  0  0  0  0  0
    1.4026    1.1139    0.0000 C   0  0  0  0  0  0  0  0  0  0  0  0
    2.1452    2.3514    0.0000 C   0  0  0  0  0  0  0  0  0  0  0  0
    0.7013    0.7013    0.0000 C   0  0  0  0  0  0  0  0  0  0  0  0
    1.4026    1.9389    0.0000 C   0  0  0  0  0  0  0  0  0  0  0  0
    2.1452    3.1765    0.0000 O   0  0  0  0  0  0  0  0  0  0  0  0
    1.1139    0.0000    0.0000 C   0  0  0  0  0  0  0  0  0  0  0  0
    0.2888    1.4439    0.0000 C   0  0  0  0  0  0  0  0  0  0  0  0
    0.0000    0.3301    0.0000 C   0  0  0  0  0  0  0  0  0  0  0  0
  1  2  1  0  0  0  0
  1  3  1  0  0  0  0
  1  4  1  0  0  0  0
  1  5  1  0  0  0  0
  5  6  2  0  0  0  0
  7  5  1  0  0  0  0
  6  8  1  0  0  0  0
  9  7  2  0  0  0  0
  8 10  1  0  0  0  0
  8 11  2  0  0  0  0
 11  9  1  0  0  0  0
  9 12  1  0  0  0  0
 10 13  1  0  0  0  0
 10 14  1  0  0  0  0
 10 15  1  0  0  0  0
M  END
>  <Name>
Phenol, 3,5-di-tert-butyl- (8CI)

>  <IGC50>
4.64

>  <CAS>
1138-52-9

>  <SET>
ws

>  <Species>
Tetrahymena pyriformis

>  <Test duration>
48h

$$$$

  Mrv1808 07152009202D          

 11 11  0  0  0  0            999 V2000
    0.7147    1.2368    0.0000 C   0  0  0  0  0  0  0  0  0  0  0  0
    0.7147    0.4123    0.0000 C   0  0  0  0  0  0  0  0  0  0  0  0
    1.4293    1.6491    0.0000 C   0  0  0  0  0  0  0  0  0  0  0  0
    0.0000    1.6491    0.0000 Cl  0  0  0  0  0  0  0  0  0  0  0  0
    1.4293    0.0000    0.0000 C   0  0  0  0  0  0  0  0  0  0  0  0
    2.1439    1.2368    0.0000 C   0  0  0  0  0  0  0  0  0  0  0  0
    1.4293    2.4737    0.0000 Cl  0  0  0  0  0  0  0  0  0  0  0  0
    2.1439    0.4123    0.0000 C   0  0  0  0  0  0  0  0  0  0  0  0
    2.8585    1.6491    0.0000 Cl  0  0  0  0  0  0  0  0  0  0  0  0
    2.8585    0.0000    0.0000 O   0  0  0  0  0  0  0  0  0  0  0  0
    3.5732    0.4123    0.0000 C   0  0  0  0  0  0  0  0  0  0  0  0
  1  2  2  0  0  0  0
  1  3  1  0  0  0  0
  1  4  1  0  0  0  0
  2  5  1  0  0  0  0
  6  3  2  0  0  0  0
  3  7  1  0  0  0  0
  5  8  2  0  0  0  0
  8  6  1  0  0  0  0
  6  9  1  0  0  0  0
  8 10  1  0  0  0  0
 10 11  1  0  0  0  0
M  END
>  <Name>
2,3,4-Trichloroanisole

>  <IGC50>
4.64

>  <CAS>
54135-80-7

>  <SET>
ws

>  <Species>
Tetrahymena pyriformis

>  <Test duration>
48h

$$$$

  Mrv1808 07152009202D          

  5  4  0  0  0  0            999 V2000
   -0.7421   -0.5156    0.0000 C   0  0  0  0  0  0  0  0  0  0  0  0
   -0.0276   -0.1031    0.0000 N   0  3  0  0  0  0  0  0  0  0  0  0
   -1.4566   -0.1031    0.0000 Br  0  0  0  0  0  0  0  0  0  0  0  0
   -0.0276    0.7219    0.0000 O   0  0  0  0  0  0  0  0  0  0  0  0
    0.6868   -0.5156    0.0000 O   0  5  0  0  0  0  0  0  0  0  0  0
  1  2  1  0  0  0  0
  1  3  1  0  0  0  0
  4  2  2  0  0  0  0
  5  2  1  0  0  0  0
M  CHG  2   2   1   5  -1
M  END
>  <Name>
bromo(nitro)methane

>  <IGC50>
4.638

>  <CAS>
563-70-2

>  <SET>
ws

>  <Species>
Tetrahymena pyriformis

>  <Test duration>
48h

$$$$

  Mrv1808 07152009202D          

 12 12  0  0  0  0            999 V2000
    1.2130    2.1752    0.0000 C   0  0  0  0  0  0  0  0  0  0  0  0
    0.7948    1.4640    0.0000 C   0  0  0  0  0  0  0  0  0  0  0  0
    2.0497    2.1752    0.0000 C   0  0  0  0  0  0  0  0  0  0  0  0
    0.7948    2.9282    0.0000 F   0  0  0  0  0  0  0  0  0  0  0  0
    1.2130    0.7529    0.0000 C   0  0  0  0  0  0  0  0  0  0  0  0
    0.0000    1.4640    0.0000 F   0  0  0  0  0  0  0  0  0  0  0  0
    2.4679    2.9282    0.0000 F   0  0  0  0  0  0  0  0  0  0  0  0
    2.4679    1.4640    0.0000 C   0  0  0  0  0  0  0  0  0  0  0  0
    2.0497    0.7529    0.0000 C   0  0  0  0  0  0  0  0  0  0  0  0
    0.7948    0.0000    0.0000 O   0  0  0  0  0  0  0  0  0  0  0  0
    3.3046    1.4640    0.0000 F   0  0  0  0  0  0  0  0  0  0  0  0
    2.4679    0.0000    0.0000 F   0  0  0  0  0  0  0  0  0  0  0  0
  1  2  2  0  0  0  0
  3  1  1  0  0  0  0
  1  4  1  0  0  0  0
  2  5  1  0  0  0  0
  2  6  1  0  0  0  0
  3  7  1  0  0  0  0
  8  3  2  0  0  0  0
  5  9  2  0  0  0  0
  5 10  1  0  0  0  0
  9  8  1  0  0  0  0
  8 11  1  0  0  0  0
  9 12  1  0  0  0  0
M  END
>  <Name>
Phenol, pentafluoro-

>  <IGC50>
4.63

>  <CAS>
771-61-9

>  <SET>
ws

>  <Species>
Tetrahymena pyriformis

>  <Test duration>
48h

$$$$

  Mrv1808 07152009202D          

 12 12  0  0  0  0            999 V2000
    0.0418    2.1751    0.0000 O   0  0  0  0  0  0  0  0  0  0  0  0
    0.4183    1.4641    0.0000 N   0  0  0  0  0  0  0  0  0  0  0  0
    0.0000    0.7529    0.0000 O   0  0  0  0  0  0  0  0  0  0  0  0
    1.2967    1.4641    0.0000 C   0  0  0  0  0  0  0  0  0  0  0  0
    1.7150    2.1751    0.0000 C   0  0  0  0  0  0  0  0  0  0  0  0
    1.7150    0.7529    0.0000 C   0  0  0  0  0  0  0  0  0  0  0  0
    1.2967    2.9280    0.0000 O   0  0  0  0  0  0  0  0  0  0  0  0
    2.5516    2.1751    0.0000 C   0  0  0  0  0  0  0  0  0  0  0  0
    2.5516    0.7529    0.0000 C   0  0  0  0  0  0  0  0  0  0  0  0
    2.9699    1.4641    0.0000 C   0  0  0  0  0  0  0  0  0  0  0  0
    2.9699    0.0000    0.0000 Cl  0  0  0  0  0  0  0  0  0  0  0  0
    3.8065    1.4641    0.0000 C   0  0  0  0  0  0  0  0  0  0  0  0
  1  2  2  0  0  0  0
  2  3  2  0  0  0  0
  2  4  1  0  0  0  0
  5  4  2  0  0  0  0
  4  6  1  0  0  0  0
  5  7  1  0  0  0  0
  8  5  1  0  0  0  0
  6  9  2  0  0  0  0
 10  8  2  0  0  0  0
  9 10  1  0  0  0  0
  9 11  1  0  0  0  0
 10 12  1  0  0  0  0
M  END
>  <Name>
Phenol, 4-chloro-5-methyl-2-nitro-

>  <IGC50>
4.63

>  <CAS>
7147-89-9

>  <SET>
ws

>  <Species>
Tetrahymena pyriformis

>  <Test duration>
48h

$$$$

  Mrv1808 07152009202D          

 12 12  0  0  0  0            999 V2000
    1.2368    0.7147    0.0000 C   0  0  0  0  0  0  0  0  0  0  0  0
    1.6491    0.0000    0.0000 O   0  0  0  0  0  0  0  0  0  0  0  0
    0.4123    0.7147    0.0000 C   0  0  0  0  0  0  0  0  0  0  0  0
    1.6491    1.4293    0.0000 C   0  0  0  0  0  0  0  0  0  0  0  0
    0.0000    0.0000    0.0000 F   0  0  0  0  0  0  0  0  0  0  0  0
    0.0000    1.4293    0.0000 C   0  0  0  0  0  0  0  0  0  0  0  0
    1.2368    2.1439    0.0000 C   0  0  0  0  0  0  0  0  0  0  0  0
    2.4737    1.4293    0.0000 N   0  3  0  0  0  0  0  0  0  0  0  0
    0.4123    2.1439    0.0000 C   0  0  0  0  0  0  0  0  0  0  0  0
    2.8860    2.1439    0.0000 O   0  0  0  0  0  0  0  0  0  0  0  0
    2.8860    0.7147    0.0000 O   0  5  0  0  0  0  0  0  0  0  0  0
    0.0000    2.8585    0.0000 Br  0  0  0  0  0  0  0  0  0  0  0  0
  1  2  1  0  0  0  0
  1  3  2  0  0  0  0
  1  4  1  0  0  0  0
  3  5  1  0  0  0  0
  3  6  1  0  0  0  0
  7  4  2  0  0  0  0
  4  8  1  0  0  0  0
  6  9  2  0  0  0  0
  9  7  1  0  0  0  0
  8 10  2  0  0  0  0
  8 11  1  0  0  0  0
  9 12  1  0  0  0  0
M  CHG  2   8   1  11  -1
M  END
>  <Name>
2-Fluoro-4-bromo-6-nitrophenol

>  <IGC50>
4.62

>  <CAS>
320-76-3

>  <SET>
ws

>  <Species>
Tetrahymena pyriformis

>  <Test duration>
48h

$$$$

  Mrv1808 07152009202D          

 12 12  0  0  0  0            999 V2000
    2.9527    1.3027    0.0000 C   0  0  0  0  0  0  0  0  0  0  0  0
    2.9527    2.1277    0.0000 C   0  0  0  0  0  0  0  0  0  0  0  0
    2.2145    0.8684    0.0000 C   0  0  0  0  0  0  0  0  0  0  0  0
    2.2145    2.5619    0.0000 C   0  0  0  0  0  0  0  0  0  0  0  0
    3.6908    2.5619    0.0000 Br  0  0  0  0  0  0  0  0  0  0  0  0
    1.5198    1.3027    0.0000 C   0  0  0  0  0  0  0  0  0  0  0  0
    2.2145    0.0000    0.0000 Br  0  0  0  0  0  0  0  0  0  0  0  0
    1.5198    2.1277    0.0000 C   0  0  0  0  0  0  0  0  0  0  0  0
    2.2145    3.4303    0.0000 N   0  0  0  0  0  0  0  0  0  0  0  0
    0.7382    2.5619    0.0000 N   0  0  0  0  0  0  0  0  0  0  0  0
    0.0000    2.1277    0.0000 O   0  0  0  0  0  0  0  0  0  0  0  0
    0.7382    3.4303    0.0000 O   0  0  0  0  0  0  0  0  0  0  0  0
  2  1  2  0  0  0  0
  1  3  1  0  0  0  0
  4  2  1  0  0  0  0
  2  5  1  0  0  0  0
  3  6  2  0  0  0  0
  3  7  1  0  0  0  0
  8  4  2  0  0  0  0
  4  9  1  0  0  0  0
  6  8  1  0  0  0  0
  8 10  1  0  0  0  0
 10 11  2  0  0  0  0
 10 12  2  0  0  0  0
M  END
>  <Name>
Benzenamine, 2,4-dibromo-6-nitro-

>  <IGC50>
4.62

>  <CAS>
827-23-6

>  <SET>
ws

>  <Species>
Tetrahymena pyriformis

>  <Test duration>
48h

$$$$

  Mrv1808 07152009202D          

 12 11  0  0  0  0            999 V2000
    0.7111    0.1255    0.0000 C   0  0  0  0  0  0  0  0  0  0  0  0
    1.4640    0.5437    0.0000 C   0  0  0  0  0  0  0  0  0  0  0  0
    0.0000    0.5437    0.0000 C   0  0  0  0  0  0  0  0  0  0  0  0
    2.1750    0.1255    0.0000 C   0  0  0  0  0  0  0  0  0  0  0  0
    0.0000    1.3803    0.0000 O   0  0  0  0  0  0  0  0  0  0  0  0
    2.8861    0.5019    0.0000 C   0  0  0  0  0  0  0  0  0  0  0  0
    3.6391    0.0836    0.0000 C   0  0  0  0  0  0  0  0  0  0  0  0
    4.3502    0.5019    0.0000 C   0  0  0  0  0  0  0  0  0  0  0  0
    5.0194    0.0418    0.0000 C   0  0  0  0  0  0  0  0  0  0  0  0
    5.7723    0.4601    0.0000 C   0  0  0  0  0  0  0  0  0  0  0  0
    6.4834    0.0000    0.0000 C   0  0  0  0  0  0  0  0  0  0  0  0
    7.1945    0.3765    0.0000 C   0  0  0  0  0  0  0  0  0  0  0  0
  1  2  2  0  0  0  0
  1  3  1  0  0  0  0
  2  4  1  0  0  0  0
  3  5  1  0  0  0  0
  4  6  1  0  0  0  0
  6  7  1  0  0  0  0
  7  8  1  0  0  0  0
  8  9  1  0  0  0  0
  9 10  1  0  0  0  0
 10 11  1  0  0  0  0
 11 12  1  0  0  0  0
M  END
>  <Name>
2-Undecen-1-ol, (E)-

>  <IGC50>
4.611

>  <CAS>
75039-84-8

>  <SET>
ws

>  <Species>
Tetrahymena pyriformis

>  <Test duration>
48h

$$$$

  Mrv1808 07152009203D          

 10  9  0  0  0  0            999 V2000
    2.2567    1.9477    3.8844 C   0  0  0  0  0  0  0  0  0  0  0  0
    2.1322    1.0611    5.1130 C   0  0  0  0  0  0  0  0  0  0  0  0
    3.4566    1.5571    3.0365 C   0  0  0  0  0  0  0  0  0  0  0  0
    0.9401    1.4506    5.9577 C   0  0  0  0  0  0  0  0  0  0  0  0
    3.5629    2.4433    1.8053 C   0  0  0  0  0  0  0  0  0  0  0  0
    4.8008    2.1260    0.9772 C   0  0  0  0  0  0  0  0  0  0  0  0
    6.0627    2.5541    1.6376 C   0  0  0  0  0  0  0  0  0  0  0  0
    7.2511    2.0330    1.3151 C   0  0  0  0  0  0  0  0  0  0  0  0
    8.5196    2.4596    1.9360 C   0  0  0  0  0  0  0  0  0  0  0  0
    8.6049    3.3085    2.7973 O   0  0  0  0  0  0  0  0  0  0  0  0
  1  2  1  0  0  0  0
  1  3  1  0  0  0  0
  2  4  1  0  0  0  0
  3  5  1  0  0  0  0
  6  5  1  0  0  0  0
  7  6  1  0  0  0  0
  7  8  2  0  0  0  0
  8  9  1  0  0  0  0
 10  9  2  0  0  0  0
M  END
>  <Name>
2-Nonenal,(E)- (8CI)

>  <IGC50>
4.6

>  <CAS>
18829-56-6

>  <SET>
ws

>  <Species>
Tetrahymena pyriformis

>  <Test duration>
48h

$$$$

  Mrv1808 07152009202D          

 16 17  0  0  0  0            999 V2000
    4.2893   -1.2353    0.0000 C   0  0  0  0  0  0  0  0  0  0  0  0
    5.0042   -0.8236    0.0000 C   0  0  0  0  0  0  0  0  0  0  0  0
    4.2893   -2.0646    0.0000 C   0  0  0  0  0  0  0  0  0  0  0  0
    5.7191   -1.2353    0.0000 C   0  0  0  0  0  0  0  0  0  0  0  0
    5.0042   -2.4764    0.0000 C   0  0  0  0  0  0  0  0  0  0  0  0
    3.5744   -2.4764    0.0000 O   0  0  0  0  0  0  0  0  0  0  0  0
    5.7191   -2.0646    0.0000 C   0  0  0  0  0  0  0  0  0  0  0  0
    2.8595   -2.0646    0.0000 C   0  0  0  0  0  0  0  0  0  0  0  0
    2.1447   -2.4764    0.0000 C   0  0  0  0  0  0  0  0  0  0  0  0
    2.8595   -1.2353    0.0000 C   0  0  0  0  0  0  0  0  0  0  0  0
    1.4298   -2.0646    0.0000 C   0  0  0  0  0  0  0  0  0  0  0  0
    2.1447   -0.8236    0.0000 C   0  0  0  0  0  0  0  0  0  0  0  0
    1.4298   -1.2353    0.0000 C   0  0  0  0  0  0  0  0  0  0  0  0
    0.7149   -0.8236    0.0000 N   0  3  0  0  0  0  0  0  0  0  0  0
    0.0000   -1.2353    0.0000 O   0  0  0  0  0  0  0  0  0  0  0  0
    0.7149    0.0000    0.0000 O   0  5  0  0  0  0  0  0  0  0  0  0
  1  2  2  0  0  0  0
  1  3  1  0  0  0  0
  2  4  1  0  0  0  0
  5  3  2  0  0  0  0
  3  6  1  0  0  0  0
  4  7  2  0  0  0  0
  7  5  1  0  0  0  0
  6  8  1  0  0  0  0
  8  9  2  0  0  0  0
  8 10  1  0  0  0  0
  9 11  1  0  0  0  0
 12 10  2  0  0  0  0
 11 13  2  0  0  0  0
 13 12  1  0  0  0  0
 13 14  1  0  0  0  0
 14 15  2  0  0  0  0
 14 16  1  0  0  0  0
M  CHG  2  14   1  16  -1
M  END
>  <Name>
Ether, p-nitrophenyl phenyl (8CI)

>  <IGC50>
4.58

>  <CAS>
620-88-2

>  <SET>
ws

>  <Species>
Tetrahymena pyriformis

>  <Test duration>
48h

$$$$

  Mrv1808 07152009203D          

 12 11  0  0  0  0            999 V2000
    3.4548    4.5071    4.4139 C   0  0  0  0  0  0  0  0  0  0  0  0
    3.8271    4.0263    3.0201 C   0  0  0  0  0  0  0  0  0  0  0  0
    1.9854    4.2662    4.7128 C   0  0  0  0  0  0  0  0  0  0  0  0
    5.3310    4.0871    2.7962 C   0  0  0  0  0  0  0  0  0  0  0  0
    1.5521    4.8278    6.0582 C   0  0  0  0  0  0  0  0  0  0  0  0
    6.0578    3.0792    3.6771 C   0  0  0  0  0  0  0  0  0  0  0  0
    1.9511    3.9473    7.2564 C   0  0  2  0  0  0  0  0  0  0  0  0
    5.7614    1.6367    3.2878 C   0  0  0  0  0  0  0  0  0  0  0  0
    1.0419    4.2414    8.4507 C   0  0  0  0  0  0  0  0  0  0  0  0
    3.3103    4.0754    7.6089 O   0  0  0  0  0  0  0  0  0  0  0  0
    6.6358    1.1050    2.1610 C   0  0  0  0  0  0  0  0  0  0  0  0
    6.1346    1.4950    0.7882 C   0  0  0  0  0  0  0  0  0  0  0  0
  1  2  1  0  0  0  0
  1  3  1  0  0  0  0
  2  4  1  0  0  0  0
  3  5  1  0  0  0  0
  4  6  1  0  0  0  0
  5  7  1  0  0  0  0
  6  8  1  0  0  0  0
  7  9  1  0  0  0  0
  7 10  1  0  0  0  0
  8 11  1  0  0  0  0
 11 12  1  0  0  0  0
M  END
>  <Name>
undecan-2-ol

>  <IGC50>
4.58

>  <CAS>
1653-30-1

>  <SET>
ws

>  <Species>
Tetrahymena pyriformis

>  <Test duration>
48h

$$$$

  Mrv1808 07152009202D          

 12 12  0  0  0  0            999 V2000
    5.7674    0.0000    0.0000 C   0  0  0  0  0  0  0  0  0  0  0  0
    4.9329    0.0000    0.0000 C   0  0  0  0  0  0  0  0  0  0  0  0
    4.5157    0.7117    0.0000 C   0  0  0  0  0  0  0  0  0  0  0  0
    3.7059    0.7117    0.0000 C   0  0  0  0  0  0  0  0  0  0  0  0
    3.2886    1.4235    0.0000 C   0  0  0  0  0  0  0  0  0  0  0  0
    2.4542    1.4235    0.0000 C   0  0  0  0  0  0  0  0  0  0  0  0
    2.0370    0.7117    0.0000 C   0  0  0  0  0  0  0  0  0  0  0  0
    2.0370    2.1351    0.0000 C   0  0  0  0  0  0  0  0  0  0  0  0
    1.2271    0.7117    0.0000 C   0  0  0  0  0  0  0  0  0  0  0  0
    1.2271    2.1351    0.0000 C   0  0  0  0  0  0  0  0  0  0  0  0
    0.8099    1.4235    0.0000 C   0  0  0  0  0  0  0  0  0  0  0  0
    0.0000    1.4235    0.0000 O   0  0  0  0  0  0  0  0  0  0  0  0
  1  2  1  0  0  0  0
  2  3  1  0  0  0  0
  3  4  1  0  0  0  0
  4  5  1  0  0  0  0
  5  6  1  0  0  0  0
  6  7  1  0  0  0  0
  6  8  2  0  0  0  0
  7  9  2  0  0  0  0
 10  8  1  0  0  0  0
  9 11  1  0  0  0  0
 11 10  2  0  0  0  0
 11 12  1  0  0  0  0
M  END
>  <Name>
4-pentylphenol

>  <IGC50>
4.58

>  <CAS>
14938-35-3

>  <SET>
ws

>  <Species>
Tetrahymena pyriformis

>  <Test duration>
48h

$$$$

  Mrv1808 07152009202D          

 14 13  0  0  0  0            999 V2000
    3.5733   -0.8258    0.0000 C   0  0  0  0  0  0  0  0  0  0  0  0
    4.2889   -1.2361    0.0000 C   0  0  0  0  0  0  0  0  0  0  0  0
    2.8576   -1.2361    0.0000 O   0  0  0  0  0  0  0  0  0  0  0  0
    3.5733    0.0000    0.0000 O   0  0  0  0  0  0  0  0  0  0  0  0
    5.0046   -0.8258    0.0000 C   0  0  0  0  0  0  0  0  0  0  0  0
    4.2889   -2.0619    0.0000 C   0  0  0  0  0  0  0  0  0  0  0  0
    2.1470   -0.8258    0.0000 C   0  0  0  0  0  0  0  0  0  0  0  0
    1.4313   -1.2361    0.0000 C   0  0  0  0  0  0  0  0  0  0  0  0
    1.4313   -2.0619    0.0000 C   0  0  0  0  0  0  0  0  0  0  0  0
    0.7156   -0.8258    0.0000 C   0  0  0  0  0  0  0  0  0  0  0  0
    0.7156   -2.4773    0.0000 C   0  0  0  0  0  0  0  0  0  0  0  0
    0.0000   -1.2361    0.0000 C   0  0  0  0  0  0  0  0  0  0  0  0
    0.7156   -3.3030    0.0000 C   0  0  0  0  0  0  0  0  0  0  0  0
    0.0000   -3.7134    0.0000 C   0  0  0  0  0  0  0  0  0  0  0  0
  1  2  1  0  0  0  0
  1  3  1  0  0  0  0
  1  4  2  0  0  0  0
  2  5  2  0  0  0  0
  2  6  1  0  0  0  0
  3  7  1  0  0  0  0
  7  8  1  0  0  0  0
  8  9  1  0  0  0  0
  8 10  1  0  0  0  0
  9 11  1  0  0  0  0
 10 12  1  0  0  0  0
 11 13  1  0  0  0  0
 13 14  1  0  0  0  0
M  END
>  <Name>
2-ethylhexyl 2-methylprop-2-enoate

>  <IGC50>
4.57

>  <CAS>
688-84-6

>  <SET>
ws

>  <Species>
Tetrahymena pyriformis

>  <Test duration>
48h

$$$$

  Mrv1808 07152009202D          

 15 15  0  0  0  0            999 V2000
    0.7789    0.0000    0.0000 C   0  0  0  0  0  0  0  0  0  0  0  0
    0.7789    0.7789    0.0000 C   0  0  0  0  0  0  0  0  0  0  0  0
    1.5168    1.1478    0.0000 C   0  0  0  0  0  0  0  0  0  0  0  0
    0.7789    1.5168    0.0000 C   0  0  0  0  0  0  0  0  0  0  0  0
    0.0000    1.1478    0.0000 C   0  0  0  0  0  0  0  0  0  0  0  0
    2.2956    0.7789    0.0000 C   0  0  0  0  0  0  0  0  0  0  0  0
    1.5168    1.8857    0.0000 C   0  0  0  0  0  0  0  0  0  0  0  0
    3.0336    1.1478    0.0000 C   0  0  0  0  0  0  0  0  0  0  0  0
    2.2956    2.2547    0.0000 C   0  0  0  0  0  0  0  0  0  0  0  0
    3.0336    1.8857    0.0000 C   0  0  0  0  0  0  0  0  0  0  0  0
    3.7715    2.2547    0.0000 C   0  0  0  0  0  0  0  0  0  0  0  0
    4.5503    1.8857    0.0000 O   0  0  0  0  0  0  0  0  0  0  0  0
    3.7715    3.0336    0.0000 O   0  0  0  0  0  0  0  0  0  0  0  0
    5.2882    2.2547    0.0000 C   0  0  0  0  0  0  0  0  0  0  0  0
    6.0671    1.8857    0.0000 C   0  0  0  0  0  0  0  0  0  0  0  0
  1  2  1  0  0  0  0
  2  3  1  0  0  0  0
  2  4  1  0  0  0  0
  2  5  1  0  0  0  0
  6  3  2  0  0  0  0
  3  7  1  0  0  0  0
  8  6  1  0  0  0  0
  7  9  2  0  0  0  0
 10  8  2  0  0  0  0
  9 10  1  0  0  0  0
 10 11  1  0  0  0  0
 11 12  1  0  0  0  0
 11 13  2  0  0  0  0
 12 14  1  0  0  0  0
 14 15  2  0  0  0  0
M  END
>  <Name>
Vinyl 4-(1,1-dimethylethyl)benzoate

>  <IGC50>
4.57

>  <CAS>
15484-80-7

>  <SET>
ws

>  <Species>
Tetrahymena pyriformis

>  <Test duration>
48h

$$$$

  Mrv1808 07152009202D          

  9  9  0  0  0  0            999 V2000
    0.8264   -1.4298    0.0000 C   0  0  0  0  0  0  0  0  0  0  0  0
    1.2382   -0.7149    0.0000 C   0  0  0  0  0  0  0  0  0  0  0  0
    1.2382   -2.1446    0.0000 C   0  0  0  0  0  0  0  0  0  0  0  0
    0.0000   -1.4298    0.0000 O   0  0  0  0  0  0  0  0  0  0  0  0
    2.0646   -0.7149    0.0000 C   0  0  0  0  0  0  0  0  0  0  0  0
    2.0646   -2.1446    0.0000 C   0  0  0  0  0  0  0  0  0  0  0  0
    2.4763   -1.4298    0.0000 C   0  0  0  0  0  0  0  0  0  0  0  0
    2.4763    0.0000    0.0000 Cl  0  0  0  0  0  0  0  0  0  0  0  0
    2.4763   -2.8595    0.0000 Cl  0  0  0  0  0  0  0  0  0  0  0  0
  1  2  1  0  0  0  0
  1  3  2  0  0  0  0
  1  4  1  0  0  0  0
  2  5  2  0  0  0  0
  6  3  1  0  0  0  0
  5  7  1  0  0  0  0
  5  8  1  0  0  0  0
  7  6  2  0  0  0  0
  6  9  1  0  0  0  0
M  END
>  <Name>
Phenol, 3,5-dichloro-

>  <IGC50>
4.56

>  <CAS>
591-35-5

>  <SET>
ws

>  <Species>
Tetrahymena pyriformis

>  <Test duration>
48h

$$$$

  Mrv1808 07152009203D          

 14 14  0  0  0  0            999 V2000
    2.0856    4.9379    2.6797 C   0  0  0  0  0  0  0  0  0  0  0  0
    1.2828    5.4985    1.6949 C   0  0  0  0  0  0  0  0  0  0  0  0
    2.2350    3.5513    2.7567 C   0  0  0  0  0  0  0  0  0  0  0  0
    0.6310    4.6794    0.7774 C   0  0  0  0  0  0  0  0  0  0  0  0
    1.5768    2.7318    1.8388 C   0  0  0  0  0  0  0  0  0  0  0  0
    3.0806    2.9520    3.8320 C   0  0  0  0  0  0  0  0  0  0  0  0
    0.7804    3.2988    0.8489 C   0  0  0  0  0  0  0  0  0  0  0  0
    4.2769    3.7661    4.2868 C   0  0  0  0  0  0  0  0  0  0  0  0
    2.8165    1.8708    4.3238 O   0  0  0  0  0  0  0  0  0  0  0  0
    5.4447    3.6327    3.3192 C   0  0  0  0  0  0  0  0  0  0  0  0
    6.2291    2.3466    3.5345 C   0  0  0  0  0  0  0  0  0  0  0  0
    6.9030    2.3260    4.8981 C   0  0  0  0  0  0  0  0  0  0  0  0
    7.5426    0.9787    5.1856 C   0  0  0  0  0  0  0  0  0  0  0  0
    8.2319    0.9703    6.5312 C   0  0  0  0  0  0  0  0  0  0  0  0
  2  1  2  0  0  0  0
  1  3  1  0  0  0  0
  4  2  1  0  0  0  0
  3  5  2  0  0  0  0
  3  6  1  0  0  0  0
  7  4  2  0  0  0  0
  5  7  1  0  0  0  0
  6  8  1  0  0  0  0
  6  9  2  0  0  0  0
 10  8  1  0  0  0  0
 11 10  1  0  0  0  0
 12 11  1  0  0  0  0
 13 12  1  0  0  0  0
 13 14  1  0  0  0  0
M  END
>  <Name>
1-Heptanone, 1-phenyl-

>  <IGC50>
4.56

>  <CAS>
1671-75-6

>  <SET>
ws

>  <Species>
Tetrahymena pyriformis

>  <Test duration>
48h

$$$$

  Mrv1808 07152009203D          

 13 14  0  0  0  0            999 V2000
    8.0665    2.0080    2.6429 C   0  0  0  0  0  0  0  0  0  0  0  0
    9.4040    1.8997    2.9125 O   0  0  0  0  0  0  0  0  0  0  0  0
    7.2101    1.2129    3.4164 C   0  0  0  0  0  0  0  0  0  0  0  0
    7.5551    2.8564    1.6529 C   0  0  0  0  0  0  0  0  0  0  0  0
    5.8425    1.2793    3.1929 C   0  0  0  0  0  0  0  0  0  0  0  0
    6.1822    2.9083    1.4479 C   0  0  0  0  0  0  0  0  0  0  0  0
    5.3154    2.1299    2.2166 C   0  0  0  0  0  0  0  0  0  0  0  0
    3.8352    2.2096    1.9699 C   0  0  2  0  0  0  0  0  0  0  0  0
    3.0927    2.7165    3.2121 C   0  0  0  0  0  0  0  0  0  0  0  0
    3.2814    0.8585    1.5192 C   0  0  0  0  0  0  0  0  0  0  0  0
    1.6313    2.2832    3.2296 C   0  0  0  0  0  0  0  0  0  0  0  0
    1.8235    0.9732    1.0901 C   0  0  0  0  0  0  0  0  0  0  0  0
    1.0801    2.0781    1.8303 C   0  0  0  0  0  0  0  0  0  0  0  0
  1  2  1  0  0  0  0
  1  3  2  0  0  0  0
  4  1  1  0  0  0  0
  3  5  1  0  0  0  0
  6  4  2  0  0  0  0
  5  7  2  0  0  0  0
  7  6  1  0  0  0  0
  7  8  1  0  0  0  0
  9  8  1  0  0  0  0
  8 10  1  0  0  0  0
 11  9  1  0  0  0  0
 10 12  1  0  0  0  0
 13 11  1  0  0  0  0
 12 13  1  0  0  0  0
M  END
>  <Name>
Phenol, p-cyclohexyl- (8CI)

>  <IGC50>
4.56

>  <CAS>
1131-60-8

>  <SET>
ws

>  <Species>
Tetrahymena pyriformis

>  <Test duration>
48h

$$$$

  Mrv1808 07152009202D          

 17 18  0  0  0  0            999 V2000
    2.8589   -1.6548    0.0000 C   0  0  0  0  0  0  0  0  0  0  0  0
    3.5800   -1.2427    0.0000 O   0  0  0  0  0  0  0  0  0  0  0  0
    2.1441   -1.2427    0.0000 C   0  0  0  0  0  0  0  0  0  0  0  0
    2.8589   -2.4790    0.0000 O   0  0  0  0  0  0  0  0  0  0  0  0
    4.2947   -1.6548    0.0000 C   0  0  0  0  0  0  0  0  0  0  0  0
    1.4294   -1.6548    0.0000 C   0  0  0  0  0  0  0  0  0  0  0  0
    2.1441   -0.4121    0.0000 C   0  0  0  0  0  0  0  0  0  0  0  0
    5.0094   -1.2427    0.0000 C   0  0  0  0  0  0  0  0  0  0  0  0
    0.7147   -1.2427    0.0000 C   0  0  0  0  0  0  0  0  0  0  0  0
    1.4294    0.0000    0.0000 C   0  0  0  0  0  0  0  0  0  0  0  0
    5.0094   -0.4121    0.0000 C   0  0  0  0  0  0  0  0  0  0  0  0
    5.7241   -1.6548    0.0000 C   0  0  0  0  0  0  0  0  0  0  0  0
    0.7147   -0.4121    0.0000 C   0  0  0  0  0  0  0  0  0  0  0  0
    5.7241    0.0000    0.0000 C   0  0  0  0  0  0  0  0  0  0  0  0
    6.4388   -1.2427    0.0000 C   0  0  0  0  0  0  0  0  0  0  0  0
    0.0000    0.0000    0.0000 O   0  0  0  0  0  0  0  0  0  0  0  0
    6.4388   -0.4121    0.0000 C   0  0  0  0  0  0  0  0  0  0  0  0
  1  2  1  0  0  0  0
  1  3  1  0  0  0  0
  1  4  2  0  0  0  0
  2  5  1  0  0  0  0
  3  6  1  0  0  0  0
  3  7  2  0  0  0  0
  5  8  1  0  0  0  0
  6  9  2  0  0  0  0
 10  7  1  0  0  0  0
  8 11  2  0  0  0  0
  8 12  1  0  0  0  0
  9 13  1  0  0  0  0
 13 10  2  0  0  0  0
 11 14  1  0  0  0  0
 15 12  2  0  0  0  0
 13 16  1  0  0  0  0
 14 17  2  0  0  0  0
 17 15  1  0  0  0  0
M  END
>  <Name>
benzyl 4-hydroxybenzoate

>  <IGC50>
4.55

>  <CAS>
94-18-8

>  <SET>
ws

>  <Species>
Tetrahymena pyriformis

>  <Test duration>
48h

$$$$

  Mrv1808 07152009202D          

 15 16  0  0  0  0            999 V2000
    2.5097    2.8861    0.0000 C   0  0  0  0  0  0  0  0  0  0  0  0
    2.9280    3.5972    0.0000 C   0  0  0  0  0  0  0  0  0  0  0  0
    2.9280    2.1751    0.0000 C   0  0  0  0  0  0  0  0  0  0  0  0
    1.6731    2.8861    0.0000 C   0  0  0  0  0  0  0  0  0  0  0  0
    3.7645    3.5972    0.0000 C   0  0  0  0  0  0  0  0  0  0  0  0
    3.7645    2.1751    0.0000 C   0  0  0  0  0  0  0  0  0  0  0  0
    1.2549    2.1751    0.0000 C   0  0  0  0  0  0  0  0  0  0  0  0
    1.2549    3.5972    0.0000 O   0  0  0  0  0  0  0  0  0  0  0  0
    4.1828    2.8861    0.0000 C   0  0  0  0  0  0  0  0  0  0  0  0
    1.6731    1.4222    0.0000 C   0  0  0  0  0  0  0  0  0  0  0  0
    0.4183    2.1751    0.0000 C   0  0  0  0  0  0  0  0  0  0  0  0
    1.2549    0.7111    0.0000 C   0  0  0  0  0  0  0  0  0  0  0  0
    0.0000    1.4222    0.0000 C   0  0  0  0  0  0  0  0  0  0  0  0
    0.4183    0.7111    0.0000 C   0  0  0  0  0  0  0  0  0  0  0  0
    1.6731    0.0000    0.0000 Cl  0  0  0  0  0  0  0  0  0  0  0  0
  1  2  2  0  0  0  0
  3  1  1  0  0  0  0
  1  4  1  0  0  0  0
  2  5  1  0  0  0  0
  6  3  2  0  0  0  0
  4  7  1  0  0  0  0
  4  8  2  0  0  0  0
  5  9  2  0  0  0  0
  9  6  1  0  0  0  0
  7 10  2  0  0  0  0
 11  7  1  0  0  0  0
 10 12  1  0  0  0  0
 13 11  2  0  0  0  0
 12 14  2  0  0  0  0
 12 15  1  0  0  0  0
 14 13  1  0  0  0  0
M  END
>  <Name>
3-Chlorobenzophenone

>  <IGC50>
4.55

>  <CAS>
1016-78-0

>  <SET>
ws

>  <Species>
Tetrahymena pyriformis

>  <Test duration>
48h

$$$$

  Mrv1808 07152009202D          

 12 12  0  0  0  0            999 V2000
    3.7055   -2.1418    0.0000 O   0  5  0  0  0  0  0  0  0  0  0  0
    3.2942   -1.4266    0.0000 N   0  3  0  0  0  0  0  0  0  0  0  0
    3.7055   -0.7152    0.0000 O   0  0  0  0  0  0  0  0  0  0  0  0
    2.4716   -1.4266    0.0000 C   0  0  0  0  0  0  0  0  0  0  0  0
    2.0603   -2.1418    0.0000 C   0  0  0  0  0  0  0  0  0  0  0  0
    2.0603   -0.7152    0.0000 C   0  0  0  0  0  0  0  0  0  0  0  0
    1.2339   -2.1418    0.0000 C   0  0  0  0  0  0  0  0  0  0  0  0
    1.2339   -0.7152    0.0000 C   0  0  0  0  0  0  0  0  0  0  0  0
    0.8226   -1.4266    0.0000 C   0  0  0  0  0  0  0  0  0  0  0  0
    0.8226   -2.8532    0.0000 Cl  0  0  0  0  0  0  0  0  0  0  0  0
    0.8226    0.0000    0.0000 Cl  0  0  0  0  0  0  0  0  0  0  0  0
    0.0000   -1.4266    0.0000 Cl  0  0  0  0  0  0  0  0  0  0  0  0
  1  2  1  0  0  0  0
  2  3  2  0  0  0  0
  2  4  1  0  0  0  0
  4  5  2  0  0  0  0
  4  6  1  0  0  0  0
  5  7  1  0  0  0  0
  8  6  2  0  0  0  0
  7  9  2  0  0  0  0
  7 10  1  0  0  0  0
  9  8  1  0  0  0  0
  8 11  1  0  0  0  0
  9 12  1  0  0  0  0
M  CHG  2   1  -1   2   1
M  END
>  <Name>
1,2,3-Trichloro-5-nitrobenzene

>  <IGC50>
4.55

>  <CAS>
20098-48-0

>  <SET>
ws

>  <Species>
Tetrahymena pyriformis

>  <Test duration>
48h

$$$$

  Mrv1808 07152009202D          

 13 14  0  0  0  0            999 V2000
    1.4308   -3.3038    0.0000 C   0  0  0  0  0  0  0  0  0  0  0  0
    0.7135   -3.7163    0.0000 C   0  0  0  0  0  0  0  0  0  0  0  0
    1.4308   -2.4788    0.0000 C   0  0  0  0  0  0  0  0  0  0  0  0
    0.0000   -3.3038    0.0000 C   0  0  0  0  0  0  0  0  0  0  0  0
    0.7135   -2.0663    0.0000 C   0  0  0  0  0  0  0  0  0  0  0  0
    2.1443   -2.0663    0.0000 C   0  0  0  0  0  0  0  0  0  0  0  0
    0.0000   -2.4788    0.0000 C   0  0  0  0  0  0  0  0  0  0  0  0
    0.7135   -1.2375    0.0000 C   0  0  0  0  0  0  0  0  0  0  0  0
    2.1443   -1.2375    0.0000 C   0  0  0  0  0  0  0  0  0  0  0  0
    2.8615   -2.4788    0.0000 O   0  0  0  0  0  0  0  0  0  0  0  0
    0.0000   -0.8250    0.0000 O   0  0  0  0  0  0  0  0  0  0  0  0
    1.4308   -0.8250    0.0000 C   0  0  0  0  0  0  0  0  0  0  0  0
    1.4308    0.0000    0.0000 C   0  0  0  0  0  0  0  0  0  0  0  0
  1  2  2  0  0  0  0
  1  3  1  0  0  0  0
  2  4  1  0  0  0  0
  5  3  2  0  0  0  0
  6  3  1  0  0  0  0
  4  7  2  0  0  0  0
  7  5  1  0  0  0  0
  5  8  1  0  0  0  0
  9  6  1  0  0  0  0
  6 10  2  0  0  0  0
  8 11  2  0  0  0  0
  8 12  1  0  0  0  0
 12  9  2  0  0  0  0
 12 13  1  0  0  0  0
M  END
>  <Name>
1,4-Naphthalenedione, 2-methyl-

>  <IGC50>
4.54

>  <CAS>
58-27-5

>  <SET>
ws

>  <Species>
Tetrahymena pyriformis

>  <Test duration>
48h

$$$$

  Mrv1808 07152009203D          

 15 15  0  0  0  0            999 V2000
    0.0000    0.0000    0.0000 O   0  0  0  0  0  0  0  0  0  0  0  0
   -0.8600    0.5600   -0.6600 C   0  0  0  0  0  0  0  0  0  0  0  0
   -2.0200   -0.1800   -1.1200 C   0  0  0  0  0  0  0  0  0  0  0  0
   -0.8000    1.8400   -1.0000 O   0  0  0  0  0  0  0  0  0  0  0  0
   -2.2000   -1.4800   -0.8400 C   0  0  0  0  0  0  0  0  0  0  0  0
    0.2000    2.5600   -0.2600 C   0  0  0  0  0  0  0  0  0  0  0  0
   -3.4000   -2.1800   -1.3400 C   0  0  0  0  0  0  0  0  0  0  0  0
    1.5200    2.5000   -1.0000 C   0  0  0  0  0  0  0  0  0  0  0  0
   -4.3800   -1.4600   -2.0600 C   0  0  0  0  0  0  0  0  0  0  0  0
   -3.5800   -3.5400   -1.0800 C   0  0  0  0  0  0  0  0  0  0  0  0
    2.6400    3.2400   -0.2800 C   0  0  0  0  0  0  0  0  0  0  0  0
   -5.5200   -2.1400   -2.5400 C   0  0  0  0  0  0  0  0  0  0  0  0
   -4.7200   -4.2200   -1.5600 C   0  0  0  0  0  0  0  0  0  0  0  0
    3.9800    3.1800   -1.0200 C   0  0  0  0  0  0  0  0  0  0  0  0
   -5.7000   -3.5000   -2.2800 C   0  0  0  0  0  0  0  0  0  0  0  0
  1  2  2  0  0  0  0
  2  3  1  0  0  0  0
  2  4  1  0  0  0  0
  3  5  2  0  0  0  0
  6  4  1  0  0  0  0
  5  7  1  0  0  0  0
  8  6  1  0  0  0  0
  7  9  2  0  0  0  0
  7 10  1  0  0  0  0
 11  8  1  0  0  0  0
  9 12  1  0  0  0  0
 13 10  2  0  0  0  0
 14 11  1  0  0  0  0
 12 15  2  0  0  0  0
 15 13  1  0  0  0  0
M  END
>  <Name>
2-Propenoic acid, 3-phenyl-, butyl ester

>  <IGC50>
4.53

>  <CAS>
538-65-8

>  <SET>
ws

>  <Species>
Tetrahymena pyriformis

>  <Test duration>
48h

$$$$

  Mrv1808 07152009202D          

 12 12  0  0  0  0            999 V2000
    2.2169    0.4183    0.0000 C   0  0  0  0  0  0  0  0  0  0  0  0
    2.2169    1.2131    0.0000 C   0  0  0  0  0  0  0  0  0  0  0  0
    1.4640    0.0000    0.0000 C   0  0  0  0  0  0  0  0  0  0  0  0
    1.4640    1.6314    0.0000 C   0  0  0  0  0  0  0  0  0  0  0  0
    2.8863    1.6314    0.0000 C   0  0  0  0  0  0  0  0  0  0  0  0
    0.7529    0.4183    0.0000 C   0  0  0  0  0  0  0  0  0  0  0  0
    0.7529    1.2131    0.0000 C   0  0  0  0  0  0  0  0  0  0  0  0
    3.6392    1.2549    0.0000 O   0  0  0  0  0  0  0  0  0  0  0  0
    2.8863    2.4680    0.0000 O   0  0  0  0  0  0  0  0  0  0  0  0
    0.0000    0.0000    0.0000 I   0  0  0  0  0  0  0  0  0  0  0  0
    4.3085    1.6732    0.0000 C   0  0  0  0  0  0  0  0  0  0  0  0
    5.0614    1.2967    0.0000 C   0  0  0  0  0  0  0  0  0  0  0  0
  2  1  2  0  0  0  0
  1  3  1  0  0  0  0
  4  2  1  0  0  0  0
  2  5  1  0  0  0  0
  3  6  2  0  0  0  0
  7  4  2  0  0  0  0
  5  8  1  0  0  0  0
  5  9  2  0  0  0  0
  6  7  1  0  0  0  0
  6 10  1  0  0  0  0
  8 11  1  0  0  0  0
 11 12  1  0  0  0  0
M  END
>  <Name>
Ethyl 4-iodobenzoate

>  <IGC50>
4.53

>  <CAS>
51934-41-9

>  <SET>
ws

>  <Species>
Tetrahymena pyriformis

>  <Test duration>
48h

$$$$

  Mrv1808 07152009202D          

 12 12  0  0  0  0            999 V2000
    0.4113   -1.4265    0.0000 N   0  3  0  0  0  0  0  0  0  0  0  0
    0.0000   -0.7152    0.0000 O   0  0  0  0  0  0  0  0  0  0  0  0
    0.0000   -2.1417    0.0000 O   0  5  0  0  0  0  0  0  0  0  0  0
    1.2339   -1.4265    0.0000 C   0  0  0  0  0  0  0  0  0  0  0  0
    1.6452   -0.7152    0.0000 C   0  0  0  0  0  0  0  0  0  0  0  0
    1.6452   -2.1417    0.0000 C   0  0  0  0  0  0  0  0  0  0  0  0
    2.4715   -0.7152    0.0000 C   0  0  0  0  0  0  0  0  0  0  0  0
    2.4715   -2.1417    0.0000 C   0  0  0  0  0  0  0  0  0  0  0  0
    1.2339   -2.8531    0.0000 Cl  0  0  0  0  0  0  0  0  0  0  0  0
    2.8828    0.0000    0.0000 Cl  0  0  0  0  0  0  0  0  0  0  0  0
    2.8828   -1.4265    0.0000 C   0  0  0  0  0  0  0  0  0  0  0  0
    3.7054   -1.4265    0.0000 Cl  0  0  0  0  0  0  0  0  0  0  0  0
  1  2  2  0  0  0  0
  1  3  1  0  0  0  0
  1  4  1  0  0  0  0
  4  5  2  0  0  0  0
  4  6  1  0  0  0  0
  5  7  1  0  0  0  0
  8  6  2  0  0  0  0
  6  9  1  0  0  0  0
  7 10  1  0  0  0  0
  7 11  2  0  0  0  0
 11  8  1  0  0  0  0
 11 12  1  0  0  0  0
M  CHG  2   1   1   3  -1
M  END
>  <Name>
Benzene, 1,2,4-trichloro-5-nitro-

>  <IGC50>
4.53

>  <CAS>
89-69-0

>  <SET>
ws

>  <Species>
Tetrahymena pyriformis

>  <Test duration>
48h

$$$$

  Mrv1808 07152009202D          

  5  4  0  0  0  0            999 V2000
    0.0000    0.4810    0.0000 Br  0  0  0  0  0  0  0  0  0  0  0  0
    0.7870    0.0000    0.0000 C   0  0  0  0  0  0  0  0  0  0  0  0
    1.4866    0.4372    0.0000 C   0  0  0  0  0  0  0  0  0  0  0  0
    2.2300    0.0000    0.0000 N   0  0  0  0  0  0  0  0  0  0  0  0
    1.4866    1.2680    0.0000 O   0  0  0  0  0  0  0  0  0  0  0  0
  1  2  1  0  0  0  0
  2  3  1  0  0  0  0
  3  4  1  0  0  0  0
  3  5  2  0  0  0  0
M  END
>  <Name>
Acetamide, 2-bromo-

>  <IGC50>
4.523

>  <CAS>
683-57-8

>  <SET>
ws

>  <Species>
Tetrahymena pyriformis

>  <Test duration>
48h

$$$$

  Mrv1808 07152009202D          

 13 13  0  0  0  0            999 V2000
    2.1367   -1.2411    0.0000 C   0  0  0  0  0  0  0  0  0  0  0  0
    2.8501   -1.6499    0.0000 C   0  0  0  0  0  0  0  0  0  0  0  0
    1.4195   -1.6499    0.0000 C   0  0  0  0  0  0  0  0  0  0  0  0
    2.1367   -0.4162    0.0000 N   0  3  0  0  0  0  0  0  0  0  0  0
    2.8501   -2.4749    0.0000 C   0  0  0  0  0  0  0  0  0  0  0  0
    1.4195   -2.4749    0.0000 C   0  0  0  0  0  0  0  0  0  0  0  0
    0.7172   -1.2411    0.0000 N   0  3  0  0  0  0  0  0  0  0  0  0
    1.4195    0.0000    0.0000 O   0  5  0  0  0  0  0  0  0  0  0  0
    2.8501    0.0000    0.0000 O   0  0  0  0  0  0  0  0  0  0  0  0
    2.1367   -2.8911    0.0000 C   0  0  0  0  0  0  0  0  0  0  0  0
    0.0000   -1.6499    0.0000 O   0  5  0  0  0  0  0  0  0  0  0  0
    0.7172   -0.4162    0.0000 O   0  0  0  0  0  0  0  0  0  0  0  0
    2.1367   -3.7160    0.0000 C   0  0  0  0  0  0  0  0  0  0  0  0
  1  2  2  0  0  0  0
  1  3  1  0  0  0  0
  1  4  1  0  0  0  0
  2  5  1  0  0  0  0
  6  3  2  0  0  0  0
  3  7  1  0  0  0  0
  4  8  1  0  0  0  0
  4  9  2  0  0  0  0
  5 10  2  0  0  0  0
 10  6  1  0  0  0  0
  7 11  1  0  0  0  0
  7 12  2  0  0  0  0
 10 13  1  0  0  0  0
M  CHG  4   4   1   7   1   8  -1  11  -1
M  END
>  <Name>
Benzene, 4-methyl-1,2-dinitro-

>  <IGC50>
4.52

>  <CAS>
610-39-9

>  <SET>
ws

>  <Species>
Tetrahymena pyriformis

>  <Test duration>
48h

$$$$

  Mrv1808 07152009202D          

 10 10  0  0  0  0            999 V2000
    2.0395    0.7648    0.0000 C   0  0  0  0  0  0  0  0  0  0  0  0
    1.2747    0.7648    0.0000 C   0  0  0  0  0  0  0  0  0  0  0  0
    2.5069    1.4446    0.0000 C   0  0  0  0  0  0  0  0  0  0  0  0
    0.8073    1.4446    0.0000 C   0  0  0  0  0  0  0  0  0  0  0  0
    0.7648    0.0000    0.0000 Br  0  0  0  0  0  0  0  0  0  0  0  0
    2.0395    2.1669    0.0000 C   0  0  0  0  0  0  0  0  0  0  0  0
    3.3567    1.4446    0.0000 Cl  0  0  0  0  0  0  0  0  0  0  0  0
    1.2747    2.1669    0.0000 C   0  0  0  0  0  0  0  0  0  0  0  0
    0.0000    1.4446    0.0000 N   0  0  0  0  0  0  0  0  0  0  0  0
    0.8073    2.8892    0.0000 Br  0  0  0  0  0  0  0  0  0  0  0  0
  2  1  2  0  0  0  0
  1  3  1  0  0  0  0
  4  2  1  0  0  0  0
  2  5  1  0  0  0  0
  3  6  2  0  0  0  0
  3  7  1  0  0  0  0
  8  4  2  0  0  0  0
  4  9  1  0  0  0  0
  6  8  1  0  0  0  0
  8 10  1  0  0  0  0
M  END
>  <Name>
Aniline,2,6-dibromo-4-chloro- (6CI,7CI,8CI)

>  <IGC50>
4.52

>  <CAS>
874-17-9

>  <SET>
ws

>  <Species>
Tetrahymena pyriformis

>  <Test duration>
48h

$$$$

  Mrv1808 07152009202D          

  6  5  0  0  0  0            999 V2000
    1.2386   -0.7134    0.0000 C   0  0  0  0  0  0  0  0  0  0  0  0
    1.6524    0.0000    0.0000 O   0  0  0  0  0  0  0  0  0  0  0  0
    1.6524   -1.4294    0.0000 C   0  0  0  0  0  0  0  0  0  0  0  0
    0.4137   -0.7134    0.0000 C   0  0  0  0  0  0  0  0  0  0  0  0
    2.4774   -1.4294    0.0000 C   0  0  0  0  0  0  0  0  0  0  0  0
    0.0000   -1.4294    0.0000 C   0  0  0  0  0  0  0  0  0  0  0  0
  1  2  2  0  0  0  0
  1  3  1  0  0  0  0
  1  4  1  0  0  0  0
  3  5  1  0  0  0  0
  4  6  2  0  0  0  0
M  END
>  <Name>
Ethyl vinyl ketone

>  <IGC50>
4.52

>  <CAS>
1629-58-9

>  <SET>
ws

>  <Species>
Tetrahymena pyriformis

>  <Test duration>
48h

$$$$

  Mrv1808 07152009202D          

 12 11  0  0  0  0            999 V2000
    2.1432   -0.6187    0.0000 N   0  0  0  0  0  0  0  0  0  0  0  0
    2.8576   -0.2062    0.0000 C   0  0  0  0  0  0  0  0  0  0  0  0
    1.4288   -0.2062    0.0000 C   0  0  0  0  0  0  0  0  0  0  0  0
    2.8576    0.6187    0.0000 S   0  0  0  0  0  0  0  0  0  0  0  0
    3.5721   -0.6187    0.0000 N   0  0  0  0  0  0  0  0  0  0  0  0
    0.7144   -0.6187    0.0000 C   0  0  0  0  0  0  0  0  0  0  0  0
    0.0000   -0.2062    0.0000 C   0  0  0  0  0  0  0  0  0  0  0  0
   -0.7144   -0.6187    0.0000 C   0  0  0  0  0  0  0  0  0  0  0  0
   -1.4288   -0.2062    0.0000 C   0  0  0  0  0  0  0  0  0  0  0  0
   -2.1432   -0.6187    0.0000 C   0  0  0  0  0  0  0  0  0  0  0  0
   -2.8576   -0.2062    0.0000 C   0  0  0  0  0  0  0  0  0  0  0  0
   -3.5721   -0.6187    0.0000 C   0  0  0  0  0  0  0  0  0  0  0  0
  1  2  1  0  0  0  0
  1  3  1  0  0  0  0
  2  4  2  0  0  0  0
  2  5  1  0  0  0  0
  3  6  1  0  0  0  0
  6  7  1  0  0  0  0
  7  8  1  0  0  0  0
  8  9  1  0  0  0  0
  9 10  1  0  0  0  0
 10 11  1  0  0  0  0
 11 12  1  0  0  0  0
M  END
>  <Name>
Urea, 1-octyl-2-thio- (7CI,8CI)

>  <IGC50>
4.51

>  <CAS>
13281-03-3

>  <SET>
ws

>  <Species>
Tetrahymena pyriformis

>  <Test duration>
48h

$$$$

  Mrv1808 07152009202D          

 16 17  0  0  0  0            999 V2000
    1.4438    0.4125    0.0000 C   0  0  0  0  0  0  0  0  0  0  0  0
    1.4438    1.2375    0.0000 C   0  0  0  0  0  0  0  0  0  0  0  0
    0.7013    0.0000    0.0000 C   0  0  0  0  0  0  0  0  0  0  0  0
    0.7013    1.6088    0.0000 C   0  0  0  0  0  0  0  0  0  0  0  0
    2.1450    1.6088    0.0000 C   0  0  0  0  0  0  0  0  0  0  0  0
    0.0000    0.4125    0.0000 C   0  0  0  0  0  0  0  0  0  0  0  0
    0.0000    1.2375    0.0000 C   0  0  0  0  0  0  0  0  0  0  0  0
    2.8463    1.2375    0.0000 C   0  0  0  0  0  0  0  0  0  0  0  0
    3.5475    1.6088    0.0000 C   0  0  0  0  0  0  0  0  0  0  0  0
    3.5475    2.4338    0.0000 O   0  0  0  0  0  0  0  0  0  0  0  0
    4.2075    1.2375    0.0000 C   0  0  0  0  0  0  0  0  0  0  0  0
    4.9501    1.6088    0.0000 C   0  0  0  0  0  0  0  0  0  0  0  0
    4.2075    0.4125    0.0000 C   0  0  0  0  0  0  0  0  0  0  0  0
    5.6513    1.2788    0.0000 C   0  0  0  0  0  0  0  0  0  0  0  0
    4.9501    0.0000    0.0000 C   0  0  0  0  0  0  0  0  0  0  0  0
    5.6513    0.4125    0.0000 C   0  0  0  0  0  0  0  0  0  0  0  0
  2  1  2  0  0  0  0
  1  3  1  0  0  0  0
  4  2  1  0  0  0  0
  2  5  1  0  0  0  0
  3  6  2  0  0  0  0
  7  4  2  0  0  0  0
  5  8  2  0  0  0  0
  6  7  1  0  0  0  0
  8  9  1  0  0  0  0
  9 10  2  0  0  0  0
  9 11  1  0  0  0  0
 11 12  2  0  0  0  0
 13 11  1  0  0  0  0
 12 14  1  0  0  0  0
 15 13  2  0  0  0  0
 14 16  2  0  0  0  0
 16 15  1  0  0  0  0
M  END
>  <Name>
2-Propen-1-one, 1,3-diphenyl-, (E)-

>  <IGC50>
4.51

>  <CAS>
614-47-1

>  <SET>
ws

>  <Species>
Tetrahymena pyriformis

>  <Test duration>
48h

$$$$

  Mrv1808 07152009202D          

 12 12  0  0  0  0            999 V2000
    3.2943   -1.4266    0.0000 N   0  3  0  0  0  0  0  0  0  0  0  0
    3.7056   -2.1381    0.0000 O   0  0  0  0  0  0  0  0  0  0  0  0
    3.7056   -0.7115    0.0000 O   0  5  0  0  0  0  0  0  0  0  0  0
    2.4716   -1.4266    0.0000 C   0  0  0  0  0  0  0  0  0  0  0  0
    2.0603   -2.1381    0.0000 C   0  0  0  0  0  0  0  0  0  0  0  0
    2.0603   -0.7115    0.0000 C   0  0  0  0  0  0  0  0  0  0  0  0
    1.2340   -2.1381    0.0000 C   0  0  0  0  0  0  0  0  0  0  0  0
    1.2340   -0.7115    0.0000 C   0  0  0  0  0  0  0  0  0  0  0  0
    2.4716    0.0000    0.0000 Cl  0  0  0  0  0  0  0  0  0  0  0  0
    0.8226   -1.4266    0.0000 C   0  0  0  0  0  0  0  0  0  0  0  0
    0.8226    0.0000    0.0000 Cl  0  0  0  0  0  0  0  0  0  0  0  0
    0.0000   -1.4266    0.0000 Cl  0  0  0  0  0  0  0  0  0  0  0  0
  1  2  2  0  0  0  0
  1  3  1  0  0  0  0
  1  4  1  0  0  0  0
  4  5  2  0  0  0  0
  4  6  1  0  0  0  0
  5  7  1  0  0  0  0
  8  6  2  0  0  0  0
  6  9  1  0  0  0  0
  7 10  2  0  0  0  0
 10  8  1  0  0  0  0
  8 11  1  0  0  0  0
 10 12  1  0  0  0  0
M  CHG  2   1   1   3  -1
M  END
>  <Name>
Benzene, 1,2,3-trichloro-4-nitro- (8CI)(9CI)

>  <IGC50>
4.51

>  <CAS>
17700-09-3

>  <SET>
ws

>  <Species>
Tetrahymena pyriformis

>  <Test duration>
48h

$$$$

  Mrv1808 07152009202D          

 13 12  0  0  0  0            999 V2000
    0.0000    0.9006    0.0000 C   0  0  0  0  0  0  0  0  0  0  0  0
    0.7720    1.2866    0.0000 C   0  0  0  0  0  0  0  0  0  0  0  0
    1.5010    0.9006    0.0000 C   0  0  0  0  0  0  0  0  0  0  0  0
    2.2730    1.2866    0.0000 C   0  0  0  0  0  0  0  0  0  0  0  0
    3.0021    0.9006    0.0000 C   0  0  0  0  0  0  0  0  0  0  0  0
    3.7311    1.2866    0.0000 C   0  0  0  0  0  0  0  0  0  0  0  0
    4.4602    0.9006    0.0000 C   0  0  0  0  0  0  0  0  0  0  0  0
    5.2321    1.2866    0.0000 C   0  0  0  0  0  0  0  0  0  0  0  0
    4.4602    0.0000    0.0000 Br  0  0  0  0  0  0  0  0  0  0  0  0
    5.9613    0.9006    0.0000 O   0  0  0  0  0  0  0  0  0  0  0  0
    5.2321    2.1443    0.0000 O   0  0  0  0  0  0  0  0  0  0  0  0
    6.6903    1.2866    0.0000 C   0  0  0  0  0  0  0  0  0  0  0  0
    7.4194    0.9006    0.0000 C   0  0  0  0  0  0  0  0  0  0  0  0
  1  2  1  0  0  0  0
  2  3  1  0  0  0  0
  3  4  1  0  0  0  0
  4  5  1  0  0  0  0
  5  6  1  0  0  0  0
  6  7  1  0  0  0  0
  7  8  1  0  0  0  0
  7  9  1  0  0  0  0
  8 10  1  0  0  0  0
  8 11  2  0  0  0  0
 10 12  1  0  0  0  0
 12 13  1  0  0  0  0
M  END
>  <Name>
Ethyl 2-bromooctanoate

>  <IGC50>
4.5

>  <CAS>
5445-29-4

>  <SET>
ws

>  <Species>
Tetrahymena pyriformis

>  <Test duration>
48h

$$$$

  Mrv1808 07152009202D          

 15 16  0  0  0  0            999 V2000
    2.1451    2.5576    0.0000 O   0  0  0  0  0  0  0  0  0  0  0  0
    2.1451    1.6913    0.0000 C   0  0  0  0  0  0  0  0  0  0  0  0
    2.8876    1.2788    0.0000 C   0  0  0  0  0  0  0  0  0  0  0  0
    1.4438    1.2788    0.0000 C   0  0  0  0  0  0  0  0  0  0  0  0
    3.5889    1.6913    0.0000 C   0  0  0  0  0  0  0  0  0  0  0  0
    2.8876    0.4538    0.0000 C   0  0  0  0  0  0  0  0  0  0  0  0
    1.4438    0.4538    0.0000 C   0  0  0  0  0  0  0  0  0  0  0  0
    0.7425    1.6913    0.0000 C   0  0  0  0  0  0  0  0  0  0  0  0
    4.2901    1.2375    0.0000 C   0  0  0  0  0  0  0  0  0  0  0  0
    3.5889    0.0412    0.0000 C   0  0  0  0  0  0  0  0  0  0  0  0
    0.7013    0.0412    0.0000 C   0  0  0  0  0  0  0  0  0  0  0  0
    0.0000    1.2788    0.0000 C   0  0  0  0  0  0  0  0  0  0  0  0
    4.2901    0.4125    0.0000 C   0  0  0  0  0  0  0  0  0  0  0  0
    0.0000    0.4538    0.0000 C   0  0  0  0  0  0  0  0  0  0  0  0
    4.9915    0.0000    0.0000 Cl  0  0  0  0  0  0  0  0  0  0  0  0
  1  2  2  0  0  0  0
  2  3  1  0  0  0  0
  2  4  1  0  0  0  0
  3  5  2  0  0  0  0
  6  3  1  0  0  0  0
  4  7  2  0  0  0  0
  8  4  1  0  0  0  0
  5  9  1  0  0  0  0
 10  6  2  0  0  0  0
  7 11  1  0  0  0  0
 12  8  2  0  0  0  0
  9 13  2  0  0  0  0
 13 10  1  0  0  0  0
 11 14  2  0  0  0  0
 14 12  1  0  0  0  0
 13 15  1  0  0  0  0
M  END
>  <Name>
Benzophenone, 4-chloro- (8CI)

>  <IGC50>
4.5

>  <CAS>
134-85-0

>  <SET>
ws

>  <Species>
Tetrahymena pyriformis

>  <Test duration>
48h

$$$$

  Mrv1808 07152009202D          

 11 11  0  0  0  0            999 V2000
    1.4221    1.2548    0.0000 C   0  0  0  0  0  0  0  0  0  0  0  0
    2.1332    0.8366    0.0000 N   0  0  0  0  0  0  0  0  0  0  0  0
    1.4221    2.0495    0.0000 C   0  0  0  0  0  0  0  0  0  0  0  0
    0.7111    0.7947    0.0000 C   0  0  0  0  0  0  0  0  0  0  0  0
    2.8443    1.2548    0.0000 C   0  0  0  0  0  0  0  0  0  0  0  0
    0.7111    2.4678    0.0000 C   0  0  0  0  0  0  0  0  0  0  0  0
    2.1332    2.4678    0.0000 C   0  0  0  0  0  0  0  0  0  0  0  0
    0.0000    1.2548    0.0000 C   0  0  0  0  0  0  0  0  0  0  0  0
    0.7111    0.0000    0.0000 C   0  0  0  0  0  0  0  0  0  0  0  0
    3.5554    1.6313    0.0000 S   0  0  0  0  0  0  0  0  0  0  0  0
    0.0000    2.0495    0.0000 C   0  0  0  0  0  0  0  0  0  0  0  0
  1  2  1  0  0  0  0
  3  1  2  0  0  0  0
  1  4  1  0  0  0  0
  2  5  2  0  0  0  0
  6  3  1  0  0  0  0
  3  7  1  0  0  0  0
  4  8  2  0  0  0  0
  4  9  1  0  0  0  0
  5 10  2  0  0  0  0
 11  6  2  0  0  0  0
  8 11  1  0  0  0  0
M  END
>  <Name>
2,6-Xylyl isothiocyanate

>  <IGC50>
4.495

>  <CAS>
19241-16-8

>  <SET>
ws

>  <Species>
Tetrahymena pyriformis

>  <Test duration>
48h

$$$$

  Mrv1808 07152009202D          

 16 15  0  0  0  0            999 V2000
    7.8713   -2.0702    0.0000 C   0  0  0  0  0  0  0  0  0  0  0  0
    7.1550   -2.4795    0.0000 C   0  0  0  0  0  0  0  0  0  0  0  0
    6.4387   -2.0702    0.0000 C   0  0  0  0  0  0  0  0  0  0  0  0
    5.7224   -2.4795    0.0000 C   0  0  0  0  0  0  0  0  0  0  0  0
    5.0061   -2.0702    0.0000 O   0  0  0  0  0  0  0  0  0  0  0  0
    4.2899   -2.4795    0.0000 C   0  0  0  0  0  0  0  0  0  0  0  0
    4.2899   -3.3059    0.0000 O   0  0  0  0  0  0  0  0  0  0  0  0
    3.5815   -2.0702    0.0000 C   0  0  0  0  0  0  0  0  0  0  0  0
    2.8652   -2.4795    0.0000 C   0  0  0  0  0  0  0  0  0  0  0  0
    2.1489   -2.0702    0.0000 C   0  0  0  0  0  0  0  0  0  0  0  0
    2.1489   -1.2437    0.0000 O   0  0  0  0  0  0  0  0  0  0  0  0
    1.4325   -2.4795    0.0000 O   0  0  0  0  0  0  0  0  0  0  0  0
    0.7163   -2.0702    0.0000 C   0  0  0  0  0  0  0  0  0  0  0  0
    0.7163   -1.2437    0.0000 C   0  0  0  0  0  0  0  0  0  0  0  0
    0.0000   -0.8265    0.0000 C   0  0  0  0  0  0  0  0  0  0  0  0
    0.0000    0.0000    0.0000 C   0  0  0  0  0  0  0  0  0  0  0  0
  1  2  1  0  0  0  0
  2  3  1  0  0  0  0
  3  4  1  0  0  0  0
  4  5  1  0  0  0  0
  5  6  1  0  0  0  0
  6  7  2  0  0  0  0
  6  8  1  0  0  0  0
  8  9  2  0  0  0  0
  9 10  1  0  0  0  0
 10 11  2  0  0  0  0
 10 12  1  0  0  0  0
 12 13  1  0  0  0  0
 13 14  1  0  0  0  0
 14 15  1  0  0  0  0
 15 16  1  0  0  0  0
M  END
>  <Name>
2-Butenedioic acid (E)-, dibutyl ester (9CI)

>  <IGC50>
4.49

>  <CAS>
105-75-9

>  <SET>
ws

>  <Species>
Tetrahymena pyriformis

>  <Test duration>
48h

$$$$

  Mrv1808 07152009202D          

  8  7  0  0  0  0            999 V2000
    5.0049    0.0000    0.0000 Br  0  0  0  0  0  0  0  0  0  0  0  0
    4.2892   -0.4104    0.0000 C   0  0  0  0  0  0  0  0  0  0  0  0
    3.5735    0.0000    0.0000 C   0  0  0  0  0  0  0  0  0  0  0  0
    2.8578   -0.4104    0.0000 C   0  0  0  0  0  0  0  0  0  0  0  0
    2.1471    0.0000    0.0000 C   0  0  0  0  0  0  0  0  0  0  0  0
    1.4314   -0.4104    0.0000 C   0  0  0  0  0  0  0  0  0  0  0  0
    0.7157    0.0000    0.0000 C   0  0  0  0  0  0  0  0  0  0  0  0
    0.0000   -0.4104    0.0000 C   0  0  0  0  0  0  0  0  0  0  0  0
  1  2  1  0  0  0  0
  2  3  1  0  0  0  0
  3  4  1  0  0  0  0
  4  5  1  0  0  0  0
  5  6  1  0  0  0  0
  6  7  1  0  0  0  0
  7  8  1  0  0  0  0
M  END
>  <Name>
Heptane, 1-bromo-

>  <IGC50>
4.487

>  <CAS>
629-04-9

>  <SET>
ws

>  <Species>
Tetrahymena pyriformis

>  <Test duration>
48h

$$$$

  Mrv1808 07152009202D          

 20 22  0  0  0  0            999 V2000
    2.4677    2.9278    0.0000 O   0  0  0  0  0  0  0  0  0  0  0  0
    2.8860    2.1750    0.0000 C   0  0  0  0  0  0  0  0  0  0  0  0
    2.4677    1.4640    0.0000 C   0  0  0  0  0  0  0  0  0  0  0  0
    3.7226    2.1750    0.0000 C   0  0  0  0  0  0  0  0  0  0  0  0
    2.8860    0.7529    0.0000 C   0  0  0  0  0  0  0  0  0  0  0  0
    1.6731    1.4640    0.0000 C   0  0  0  0  0  0  0  0  0  0  0  0
    4.1408    1.4640    0.0000 C   0  0  0  0  0  0  0  0  0  0  0  0
    3.7226    0.7529    0.0000 C   0  0  0  0  0  0  0  0  0  0  0  0
    1.2548    0.7529    0.0000 C   0  0  0  0  0  0  0  0  0  0  0  0
    1.2548    2.1750    0.0000 C   0  0  0  0  0  0  0  0  0  0  0  0
    5.0191    1.4640    0.0000 C   0  0  0  0  0  0  0  0  0  0  0  0
    4.1408    0.0000    0.0000 O   0  0  0  0  0  0  0  0  0  0  0  0
    0.4182    0.7529    0.0000 C   0  0  0  0  0  0  0  0  0  0  0  0
    0.4182    2.1750    0.0000 C   0  0  0  0  0  0  0  0  0  0  0  0
    5.4374    2.1750    0.0000 C   0  0  0  0  0  0  0  0  0  0  0  0
    5.4374    0.7529    0.0000 C   0  0  0  0  0  0  0  0  0  0  0  0
    0.0000    1.4640    0.0000 C   0  0  0  0  0  0  0  0  0  0  0  0
    6.2740    2.1750    0.0000 C   0  0  0  0  0  0  0  0  0  0  0  0
    6.2740    0.7529    0.0000 C   0  0  0  0  0  0  0  0  0  0  0  0
    6.6922    1.4640    0.0000 C   0  0  0  0  0  0  0  0  0  0  0  0
  1  2  2  0  0  0  0
  2  3  1  0  0  0  0
  4  2  1  0  0  0  0
  3  5  2  0  0  0  0
  3  6  1  0  0  0  0
  7  4  2  0  0  0  0
  5  8  1  0  0  0  0
  9  6  2  0  0  0  0
  6 10  1  0  0  0  0
  8  7  1  0  0  0  0
  7 11  1  0  0  0  0
  8 12  2  0  0  0  0
 13  9  1  0  0  0  0
 10 14  2  0  0  0  0
 15 11  2  0  0  0  0
 11 16  1  0  0  0  0
 17 13  2  0  0  0  0
 14 17  1  0  0  0  0
 18 15  1  0  0  0  0
 16 19  2  0  0  0  0
 20 18  2  0  0  0  0
 19 20  1  0  0  0  0
M  END
>  <Name>
p-Benzoquinone, 2,5-diphenyl- (8CI)

>  <IGC50>
4.48

>  <CAS>
844-51-9

>  <SET>
ws

>  <Species>
Tetrahymena pyriformis

>  <Test duration>
48h

$$$$

  Mrv1808 07152009202D          

 16 17  0  0  0  0            999 V2000
    2.1503   -0.8236    0.0000 C   0  0  0  0  0  0  0  0  0  0  0  0
    2.1503    0.0000    0.0000 O   0  0  0  0  0  0  0  0  0  0  0  0
    1.4298   -1.2353    0.0000 C   0  0  0  0  0  0  0  0  0  0  0  0
    2.8652   -1.2353    0.0000 O   0  0  0  0  0  0  0  0  0  0  0  0
    1.4298   -2.0588    0.0000 C   0  0  0  0  0  0  0  0  0  0  0  0
    0.7148   -0.8236    0.0000 C   0  0  0  0  0  0  0  0  0  0  0  0
    3.5686   -0.8236    0.0000 C   0  0  0  0  0  0  0  0  0  0  0  0
    0.7148   -2.4763    0.0000 C   0  0  0  0  0  0  0  0  0  0  0  0
    0.0000   -1.2353    0.0000 C   0  0  0  0  0  0  0  0  0  0  0  0
    4.2892   -1.2353    0.0000 C   0  0  0  0  0  0  0  0  0  0  0  0
    0.0000   -2.0588    0.0000 C   0  0  0  0  0  0  0  0  0  0  0  0
    5.0041   -0.8236    0.0000 C   0  0  0  0  0  0  0  0  0  0  0  0
    4.2892   -2.0588    0.0000 C   0  0  0  0  0  0  0  0  0  0  0  0
    5.7189   -1.2353    0.0000 C   0  0  0  0  0  0  0  0  0  0  0  0
    5.0041   -2.4763    0.0000 C   0  0  0  0  0  0  0  0  0  0  0  0
    5.7189   -2.0588    0.0000 C   0  0  0  0  0  0  0  0  0  0  0  0
  1  2  2  0  0  0  0
  1  3  1  0  0  0  0
  1  4  1  0  0  0  0
  3  5  2  0  0  0  0
  3  6  1  0  0  0  0
  4  7  1  0  0  0  0
  5  8  1  0  0  0  0
  6  9  2  0  0  0  0
  7 10  1  0  0  0  0
  8 11  2  0  0  0  0
  9 11  1  0  0  0  0
 10 12  2  0  0  0  0
 10 13  1  0  0  0  0
 12 14  1  0  0  0  0
 13 15  2  0  0  0  0
 14 16  2  0  0  0  0
 15 16  1  0  0  0  0
M  END
>  <Name>
Benzoic acid, phenylmethyl ester

>  <IGC50>
4.45

>  <CAS>
120-51-4

>  <SET>
ws

>  <Species>
Tetrahymena pyriformis

>  <Test duration>
48h

$$$$

  Mrv1808 07152009202D          

  8  7  0  0  0  0            999 V2000
    1.4222    0.8366    0.0000 C   0  0  0  0  0  0  0  0  0  0  0  0
    1.4222    0.0000    0.0000 Cl  0  0  0  0  0  0  0  0  0  0  0  0
    0.7111    1.2549    0.0000 C   0  0  0  0  0  0  0  0  0  0  0  0
    2.1332    1.2549    0.0000 C   0  0  0  0  0  0  0  0  0  0  0  0
    0.0000    0.8366    0.0000 C   0  0  0  0  0  0  0  0  0  0  0  0
    0.7111    2.0914    0.0000 O   0  0  0  0  0  0  0  0  0  0  0  0
    2.8443    0.8366    0.0000 C   0  0  0  0  0  0  0  0  0  0  0  0
    2.1332    2.0914    0.0000 O   0  0  0  0  0  0  0  0  0  0  0  0
  1  2  1  0  0  0  0
  1  3  1  0  0  0  0
  1  4  1  0  0  0  0
  3  5  1  0  0  0  0
  3  6  2  0  0  0  0
  4  7  1  0  0  0  0
  4  8  2  0  0  0  0
M  END
>  <Name>
2,4-Pentanedione, 3-chloro-

>  <IGC50>
4.444

>  <CAS>
1694-29-7

>  <SET>
ws

>  <Species>
Tetrahymena pyriformis

>  <Test duration>
48h

$$$$

  Mrv1808 07152009202D          

 20 20  0  0  0  0            999 V2000
    3.3000   -3.5745    0.0000 C   0  0  0  0  0  0  0  0  0  0  0  0
    3.7175   -2.8596    0.0000 C   0  0  0  0  0  0  0  0  0  0  0  0
    3.7175   -4.2894    0.0000 C   0  0  0  0  0  0  0  0  0  0  0  0
    2.4764   -3.5745    0.0000 C   0  0  0  0  0  0  0  0  0  0  0  0
    3.3000   -2.1447    0.0000 C   0  0  0  0  0  0  0  0  0  0  0  0
    4.5411   -2.8596    0.0000 C   0  0  0  0  0  0  0  0  0  0  0  0
    4.5411   -4.2894    0.0000 C   0  0  0  0  0  0  0  0  0  0  0  0
    2.0647   -4.2894    0.0000 O   0  0  0  0  0  0  0  0  0  0  0  0
    2.0647   -2.8596    0.0000 O   0  0  0  0  0  0  0  0  0  0  0  0
    2.4764   -2.1447    0.0000 O   0  0  0  0  0  0  0  0  0  0  0  0
    3.7175   -1.4298    0.0000 O   0  0  0  0  0  0  0  0  0  0  0  0
    4.9528   -3.5745    0.0000 C   0  0  0  0  0  0  0  0  0  0  0  0
    1.2411   -4.2894    0.0000 C   0  0  0  0  0  0  0  0  0  0  0  0
    2.0647   -1.4298    0.0000 C   0  0  0  0  0  0  0  0  0  0  0  0
    0.8236   -5.0043    0.0000 C   0  0  0  0  0  0  0  0  0  0  0  0
    2.4764   -0.7149    0.0000 C   0  0  0  0  0  0  0  0  0  0  0  0
    1.2411   -5.7192    0.0000 C   0  0  0  0  0  0  0  0  0  0  0  0
    0.0000   -5.0043    0.0000 C   0  0  0  0  0  0  0  0  0  0  0  0
    2.0647    0.0000    0.0000 C   0  0  0  0  0  0  0  0  0  0  0  0
    3.3000   -0.7149    0.0000 C   0  0  0  0  0  0  0  0  0  0  0  0
  1  2  2  0  0  0  0
  1  3  1  0  0  0  0
  1  4  1  0  0  0  0
  2  5  1  0  0  0  0
  2  6  1  0  0  0  0
  7  3  2  0  0  0  0
  4  8  1  0  0  0  0
  4  9  2  0  0  0  0
  5 10  1  0  0  0  0
  5 11  2  0  0  0  0
  6 12  2  0  0  0  0
 12  7  1  0  0  0  0
  8 13  1  0  0  0  0
 10 14  1  0  0  0  0
 13 15  1  0  0  0  0
 14 16  1  0  0  0  0
 15 17  1  0  0  0  0
 15 18  1  0  0  0  0
 16 19  1  0  0  0  0
 16 20  1  0  0  0  0
M  END
>  <Name>
1,2-Benzenedicarboxylic acid, bis(2-methylpropyl) ester

>  <IGC50>
4.44

>  <CAS>
84-69-5

>  <SET>
ws

>  <Species>
Tetrahymena pyriformis

>  <Test duration>
48h

$$$$

  Mrv1808 07152009202D          

 15 15  0  0  0  0            999 V2000
    2.8463    1.1550    0.0000 C   0  0  0  0  0  0  0  0  0  0  0  0
    2.8463    1.8976    0.0000 C   0  0  0  0  0  0  0  0  0  0  0  0
    2.1450    0.7012    0.0000 C   0  0  0  0  0  0  0  0  0  0  0  0
    3.5888    0.7012    0.0000 C   0  0  0  0  0  0  0  0  0  0  0  0
    2.1450    2.3100    0.0000 C   0  0  0  0  0  0  0  0  0  0  0  0
    1.4437    1.1550    0.0000 C   0  0  0  0  0  0  0  0  0  0  0  0
    4.0013    1.4437    0.0000 C   0  0  0  0  0  0  0  0  0  0  0  0
    3.1763    0.0000    0.0000 C   0  0  0  0  0  0  0  0  0  0  0  0
    4.2901    0.3300    0.0000 C   0  0  0  0  0  0  0  0  0  0  0  0
    1.4437    1.8976    0.0000 C   0  0  0  0  0  0  0  0  0  0  0  0
    2.1450    3.1350    0.0000 N   0  0  0  0  0  0  0  0  0  0  0  0
    0.7425    0.7012    0.0000 C   0  0  0  0  0  0  0  0  0  0  0  0
    0.2888    1.4437    0.0000 C   0  0  0  0  0  0  0  0  0  0  0  0
    1.1138    0.0000    0.0000 C   0  0  0  0  0  0  0  0  0  0  0  0
    0.0000    0.3300    0.0000 C   0  0  0  0  0  0  0  0  0  0  0  0
  2  1  2  0  0  0  0
  1  3  1  0  0  0  0
  1  4  1  0  0  0  0
  5  2  1  0  0  0  0
  3  6  2  0  0  0  0
  4  7  1  0  0  0  0
  4  8  1  0  0  0  0
  4  9  1  0  0  0  0
 10  5  2  0  0  0  0
  5 11  1  0  0  0  0
  6 10  1  0  0  0  0
  6 12  1  0  0  0  0
 12 13  1  0  0  0  0
 12 14  1  0  0  0  0
 12 15  1  0  0  0  0
M  END
>  <Name>
3,5-Di-tert-butylaniline

>  <IGC50>
4.44

>  <CAS>
2380-36-1

>  <SET>
ws

>  <Species>
Tetrahymena pyriformis

>  <Test duration>
48h

$$$$

  Mrv1808 07152009202D          

 10  9  0  0  0  0            999 V2000
    1.4024    1.1137    0.0000 C   0  0  0  0  0  0  0  0  0  0  0  0
    2.1036    1.5674    0.0000 C   0  0  0  0  0  0  0  0  0  0  0  0
    1.4024    0.2887    0.0000 Br  0  0  0  0  0  0  0  0  0  0  0  0
    0.6599    1.5261    0.0000 C   0  0  0  0  0  0  0  0  0  0  0  0
    2.8048    1.1549    0.0000 O   0  0  0  0  0  0  0  0  0  0  0  0
    2.0623    2.3923    0.0000 O   0  0  0  0  0  0  0  0  0  0  0  0
    0.6599    2.3510    0.0000 C   0  0  0  0  0  0  0  0  0  0  0  0
    0.0000    1.0724    0.0000 Br  0  0  0  0  0  0  0  0  0  0  0  0
    2.8460    0.3300    0.0000 C   0  0  0  0  0  0  0  0  0  0  0  0
    3.5885    0.0000    0.0000 C   0  0  0  0  0  0  0  0  0  0  0  0
  1  2  1  0  0  0  0
  1  3  1  0  0  0  0
  1  4  1  0  0  0  0
  2  5  1  0  0  0  0
  2  6  2  0  0  0  0
  4  7  1  0  0  0  0
  4  8  1  0  0  0  0
  5  9  1  0  0  0  0
  9 10  1  0  0  0  0
M  END
>  <Name>
Butyric acid, 2,3-dibromo-, ethyl ester (8CI)

>  <IGC50>
4.438

>  <CAS>
609-11-0

>  <SET>
ws

>  <Species>
Tetrahymena pyriformis

>  <Test duration>
48h

$$$$

  Mrv1808 07152009202D          

 12 13  0  0  0  0            999 V2000
    1.4322   -1.2441    0.0000 C   0  0  0  0  0  0  0  0  0  0  0  0
    1.4322   -2.0691    0.0000 C   0  0  0  0  0  0  0  0  0  0  0  0
    0.7161   -0.8250    0.0000 C   0  0  0  0  0  0  0  0  0  0  0  0
    2.1384   -0.8250    0.0000 C   0  0  0  0  0  0  0  0  0  0  0  0
    0.7161   -2.4750    0.0000 C   0  0  0  0  0  0  0  0  0  0  0  0
    2.1384   -2.4750    0.0000 C   0  0  0  0  0  0  0  0  0  0  0  0
    0.0000   -1.2441    0.0000 C   0  0  0  0  0  0  0  0  0  0  0  0
    2.8512   -1.2309    0.0000 C   0  0  0  0  0  0  0  0  0  0  0  0
    2.1384    0.0000    0.0000 C   0  0  0  0  0  0  0  0  0  0  0  0
    0.0000   -2.0691    0.0000 C   0  0  0  0  0  0  0  0  0  0  0  0
    2.8512   -2.0691    0.0000 C   0  0  0  0  0  0  0  0  0  0  0  0
    2.1384   -3.3000    0.0000 C   0  0  0  0  0  0  0  0  0  0  0  0
  1  2  2  0  0  0  0
  1  3  1  0  0  0  0
  1  4  1  0  0  0  0
  2  5  1  0  0  0  0
  2  6  1  0  0  0  0
  3  7  2  0  0  0  0
  4  8  2  0  0  0  0
  4  9  1  0  0  0  0
  5 10  2  0  0  0  0
  6 11  2  0  0  0  0
  6 12  1  0  0  0  0
 10  7  1  0  0  0  0
  8 11  1  0  0  0  0
M  END
>  <Name>
1,4-dimethylnaphthalene

>  <IGC50>
4.43

>  <CAS>
571-58-4

>  <SET>
ws

>  <Species>
Tetrahymena pyriformis

>  <Test duration>
48h

$$$$

  Mrv1808 07152009202D          

  8  8  0  0  0  0            999 V2000
    1.4531   -0.2293    0.0000 N   0  0  0  0  0  0  0  0  0  0  0  0
    1.9365   -0.8978    0.0000 C   0  0  0  0  0  0  0  0  0  0  0  0
    0.6685   -0.4862    0.0000 C   0  0  0  0  0  0  0  0  0  0  0  0
    2.7625   -0.8978    0.0000 Br  0  0  0  0  0  0  0  0  0  0  0  0
    1.4531   -1.5663    0.0000 N   0  0  0  0  0  0  0  0  0  0  0  0
    0.6685   -1.3094    0.0000 C   0  0  0  0  0  0  0  0  0  0  0  0
    0.0000    0.0000    0.0000 Br  0  0  0  0  0  0  0  0  0  0  0  0
    0.0000   -1.7956    0.0000 Br  0  0  0  0  0  0  0  0  0  0  0  0
  1  2  2  0  0  0  0
  1  3  1  0  0  0  0
  2  4  1  0  0  0  0
  2  5  1  0  0  0  0
  6  3  2  0  0  0  0
  3  7  1  0  0  0  0
  5  6  1  0  0  0  0
  6  8  1  0  0  0  0
M  END
>  <Name>
1H-Imidazole, 2,4,5-tribromo-

>  <IGC50>
4.43

>  <CAS>
2034-22-2

>  <SET>
ws

>  <Species>
Tetrahymena pyriformis

>  <Test duration>
48h

$$$$

  Mrv1808 07152009202D          

 12 12  0  0  0  0            999 V2000
    3.7055   -2.1418    0.0000 O   0  5  0  0  0  0  0  0  0  0  0  0
    3.2942   -1.4266    0.0000 N   0  3  0  0  0  0  0  0  0  0  0  0
    3.7055   -0.7152    0.0000 O   0  0  0  0  0  0  0  0  0  0  0  0
    2.4716   -1.4266    0.0000 C   0  0  0  0  0  0  0  0  0  0  0  0
    2.0603   -2.1418    0.0000 C   0  0  0  0  0  0  0  0  0  0  0  0
    2.0603   -0.7152    0.0000 C   0  0  0  0  0  0  0  0  0  0  0  0
    2.4716   -2.8532    0.0000 Cl  0  0  0  0  0  0  0  0  0  0  0  0
    1.2339   -2.1418    0.0000 C   0  0  0  0  0  0  0  0  0  0  0  0
    1.2339   -0.7152    0.0000 C   0  0  0  0  0  0  0  0  0  0  0  0
    2.4716    0.0000    0.0000 Cl  0  0  0  0  0  0  0  0  0  0  0  0
    0.8226   -1.4266    0.0000 C   0  0  0  0  0  0  0  0  0  0  0  0
    0.0000   -1.4266    0.0000 Cl  0  0  0  0  0  0  0  0  0  0  0  0
  1  2  1  0  0  0  0
  2  3  2  0  0  0  0
  2  4  1  0  0  0  0
  4  5  2  0  0  0  0
  4  6  1  0  0  0  0
  5  7  1  0  0  0  0
  5  8  1  0  0  0  0
  9  6  2  0  0  0  0
  6 10  1  0  0  0  0
  8 11  2  0  0  0  0
 11  9  1  0  0  0  0
 11 12  1  0  0  0  0
M  CHG  2   1  -1   2   1
M  END
>  <Name>
Benzene, 1,3,5-trichloro-2-nitro-

>  <IGC50>
4.43

>  <CAS>
18708-70-8

>  <SET>
ws

>  <Species>
Tetrahymena pyriformis

>  <Test duration>
48h

$$$$

  Mrv1808 07152009202D          

 10 10  0  0  0  0            999 V2000
    3.7054   -0.7152    0.0000 O   0  0  0  0  0  0  0  0  0  0  0  0
    2.8829   -0.7152    0.0000 C   0  0  0  0  0  0  0  0  0  0  0  0
    2.4715   -1.4266    0.0000 C   0  0  0  0  0  0  0  0  0  0  0  0
    2.4715    0.0000    0.0000 C   0  0  0  0  0  0  0  0  0  0  0  0
    1.6452   -1.4266    0.0000 C   0  0  0  0  0  0  0  0  0  0  0  0
    1.6452    0.0000    0.0000 C   0  0  0  0  0  0  0  0  0  0  0  0
    1.2339   -0.7152    0.0000 C   0  0  0  0  0  0  0  0  0  0  0  0
    0.4113   -0.7152    0.0000 N   0  3  0  0  0  0  0  0  0  0  0  0
    0.0000   -1.4266    0.0000 O   0  0  0  0  0  0  0  0  0  0  0  0
    0.0000    0.0000    0.0000 O   0  5  0  0  0  0  0  0  0  0  0  0
  1  2  1  0  0  0  0
  2  3  2  0  0  0  0
  2  4  1  0  0  0  0
  3  5  1  0  0  0  0
  6  4  2  0  0  0  0
  5  7  2  0  0  0  0
  7  6  1  0  0  0  0
  7  8  1  0  0  0  0
  8  9  2  0  0  0  0
  8 10  1  0  0  0  0
M  CHG  2   8   1  10  -1
M  END
>  <Name>
Phenol, 4-nitro-

>  <IGC50>
4.42

>  <CAS>
100-02-7

>  <SET>
ws

>  <Species>
Tetrahymena pyriformis

>  <Test duration>
48h

$$$$

  Mrv1808 07152009202D          

 17 18  0  0  0  0            999 V2000
    2.1451   -2.0650    0.0000 C   0  0  0  0  0  0  0  0  0  0  0  0
    2.8551   -2.4751    0.0000 C   0  0  0  0  0  0  0  0  0  0  0  0
    1.4300   -2.4751    0.0000 C   0  0  0  0  0  0  0  0  0  0  0  0
    2.1451   -1.2400    0.0000 C   0  0  0  0  0  0  0  0  0  0  0  0
    2.8551   -3.3001    0.0000 O   0  0  0  0  0  0  0  0  0  0  0  0
    3.5701   -2.0650    0.0000 C   0  0  0  0  0  0  0  0  0  0  0  0
    0.7150   -2.0650    0.0000 C   0  0  0  0  0  0  0  0  0  0  0  0
    1.4300   -3.3001    0.0000 O   0  0  0  0  0  0  0  0  0  0  0  0
    1.4300   -0.8250    0.0000 C   0  0  0  0  0  0  0  0  0  0  0  0
    3.5701   -1.2400    0.0000 C   0  0  0  0  0  0  0  0  0  0  0  0
    4.2852   -2.4751    0.0000 C   0  0  0  0  0  0  0  0  0  0  0  0
    0.7150   -1.2400    0.0000 C   0  0  0  0  0  0  0  0  0  0  0  0
    4.2852   -0.8250    0.0000 C   0  0  0  0  0  0  0  0  0  0  0  0
    5.0002   -2.0650    0.0000 C   0  0  0  0  0  0  0  0  0  0  0  0
    0.0000   -0.8250    0.0000 O   0  0  0  0  0  0  0  0  0  0  0  0
    5.0002   -1.2400    0.0000 C   0  0  0  0  0  0  0  0  0  0  0  0
    0.0000    0.0000    0.0000 C   0  0  0  0  0  0  0  0  0  0  0  0
  1  2  1  0  0  0  0
  1  3  1  0  0  0  0
  1  4  2  0  0  0  0
  2  5  2  0  0  0  0
  2  6  1  0  0  0  0
  3  7  2  0  0  0  0
  3  8  1  0  0  0  0
  9  4  1  0  0  0  0
  6 10  1  0  0  0  0
  6 11  2  0  0  0  0
  7 12  1  0  0  0  0
 12  9  2  0  0  0  0
 10 13  2  0  0  0  0
 14 11  1  0  0  0  0
 12 15  1  0  0  0  0
 13 16  1  0  0  0  0
 16 14  2  0  0  0  0
 15 17  1  0  0  0  0
M  END
>  <Name>
Methanone, (2-hydroxy-4-methoxyphenyl)phenyl-

>  <IGC50>
4.42

>  <CAS>
131-57-7

>  <SET>
ws

>  <Species>
Tetrahymena pyriformis

>  <Test duration>
48h

$$$$

  Mrv1808 07152009202D          

 13 15  0  0  0  0            999 V2000
    3.3000    0.0000    0.0000 C   0  0  0  0  0  0  0  0  0  0  0  0
    3.9664   -0.4839    0.0000 C   0  0  0  0  0  0  0  0  0  0  0  0
    2.5464   -0.3371    0.0000 C   0  0  0  0  0  0  0  0  0  0  0  0
    3.8791   -1.3049    0.0000 C   0  0  0  0  0  0  0  0  0  0  0  0
    2.4592   -1.1582    0.0000 C   0  0  0  0  0  0  0  0  0  0  0  0
    1.7888    0.0000    0.0000 O   0  0  0  0  0  0  0  0  0  0  0  0
    3.1255   -1.6421    0.0000 C   0  0  0  0  0  0  0  0  0  0  0  0
    1.6500   -1.3287    0.0000 C   0  0  0  0  0  0  0  0  0  0  0  0
    1.2375   -0.6148    0.0000 C   0  0  0  0  0  0  0  0  0  0  0  0
    1.2375   -2.0427    0.0000 C   0  0  0  0  0  0  0  0  0  0  0  0
    0.4125   -0.6148    0.0000 C   0  0  0  0  0  0  0  0  0  0  0  0
    0.4125   -2.0427    0.0000 C   0  0  0  0  0  0  0  0  0  0  0  0
    0.0000   -1.3287    0.0000 C   0  0  0  0  0  0  0  0  0  0  0  0
  1  2  2  0  0  0  0
  1  3  1  0  0  0  0
  2  4  1  0  0  0  0
  5  3  2  0  0  0  0
  6  3  1  0  0  0  0
  4  7  2  0  0  0  0
  7  5  1  0  0  0  0
  5  8  1  0  0  0  0
  9  6  1  0  0  0  0
  8 10  2  0  0  0  0
  8  9  1  0  0  0  0
 11  9  2  0  0  0  0
 10 12  1  0  0  0  0
 13 11  1  0  0  0  0
 12 13  2  0  0  0  0
M  END
>  <Name>
Dibenzofuran

>  <IGC50>
4.42

>  <CAS>
132-64-9

>  <SET>
ws

>  <Species>
Tetrahymena pyriformis

>  <Test duration>
48h

$$$$

  Mrv1808 07152009203D          

  7  6  0  0  0  0            999 V2000
    0.5180    0.1950    0.0000 C   0  0  0  0  0  0  0  0  0  0  0  0
    1.6540   -0.7549    0.0001 C   0  0  0  0  0  0  0  0  0  0  0  0
    0.5520    1.4097    0.0000 O   0  0  0  0  0  0  0  0  0  0  0  0
   -0.6888   -0.4626    0.0000 O   0  0  0  0  0  0  0  0  0  0  0  0
    2.9155   -0.3334   -0.0001 C   0  0  0  0  0  0  0  0  0  0  0  0
   -1.8686    0.2649    0.0001 C   0  0  0  0  0  0  0  0  0  0  0  0
   -2.9978   -0.4439   -0.0001 C   0  0  0  0  0  0  0  0  0  0  0  0
  1  2  1  0  0  0  0
  1  3  2  0  0  0  0
  1  4  1  0  0  0  0
  2  5  2  0  0  0  0
  4  6  1  0  0  0  0
  6  7  2  0  0  0  0
M  END
>  <Name>
Acrylic acid, vinyl ester (6CI,7CI,8CI)

>  <IGC50>
4.42

>  <CAS>
2177-18-6

>  <SET>
ws

>  <Species>
Tetrahymena pyriformis

>  <Test duration>
48h

$$$$

  Mrv1808 07152009203D          

 14 14  0  0  0  0            999 V2000
    1.5914   -0.7430   -0.6595 O   0  0  0  0  0  0  0  0  0  0  0  0
    2.5072    0.3068   -0.3801 C   0  0  0  0  0  0  0  0  0  0  0  0
    0.2654   -0.4854   -0.4266 C   0  0  0  0  0  0  0  0  0  0  0  0
    3.8473   -0.3004    0.0101 C   0  0  0  0  0  0  0  0  0  0  0  0
   -0.2155    0.8126   -0.5554 C   0  0  0  0  0  0  0  0  0  0  0  0
   -0.5845   -1.5243   -0.0647 C   0  0  0  0  0  0  0  0  0  0  0  0
    4.8785    0.7749    0.3405 C   0  0  0  0  0  0  0  0  0  0  0  0
   -1.5648    1.0753   -0.3187 C   0  0  0  0  0  0  0  0  0  0  0  0
   -1.9339   -1.2614    0.1717 C   0  0  0  0  0  0  0  0  0  0  0  0
    6.2022    0.1638    0.7713 C   0  0  0  0  0  0  0  0  0  0  0  0
   -2.4240    0.0384    0.0446 C   0  0  0  0  0  0  0  0  0  0  0  0
   -3.7976    0.3048    0.2867 N   0  3  0  0  0  0  0  0  0  0  0  0
   -4.2189    1.4809    0.1680 O   0  5  0  0  0  0  0  0  0  0  0  0
   -4.5527   -0.6430    0.6121 O   0  0  0  0  0  0  0  0  0  0  0  0
  1  2  1  0  0  0  0
  1  3  1  0  0  0  0
  4  2  1  0  0  0  0
  3  5  2  0  0  0  0
  3  6  1  0  0  0  0
  4  7  1  0  0  0  0
  5  8  1  0  0  0  0
  6  9  2  0  0  0  0
  7 10  1  0  0  0  0
 11  8  2  0  0  0  0
 11  9  1  0  0  0  0
 12 11  1  0  0  0  0
 13 12  1  0  0  0  0
 14 12  2  0  0  0  0
M  CHG  2  12   1  13  -1
M  END
>  <Name>
1-butoxy-4-nitrobenzene

>  <IGC50>
4.42

>  <CAS>
7244-78-2

>  <SET>
ws

>  <Species>
Tetrahymena pyriformis

>  <Test duration>
48h

$$$$

  Mrv1808 07152009202D          

  7  6  0  0  0  0            999 V2000
    1.3856   -0.5875    0.0000 S   0  0  0  0  0  0  0  0  0  0  0  0
    1.9649    0.0000    0.0000 O   0  0  0  0  0  0  0  0  0  0  0  0
    0.7981   -0.0083    0.0000 O   0  0  0  0  0  0  0  0  0  0  0  0
    1.9732   -1.1639    0.0000 C   0  0  0  0  0  0  0  0  0  0  0  0
    0.7981   -1.1750    0.0000 C   0  0  0  0  0  0  0  0  0  0  0  0
    2.7713   -0.9561    0.0000 C   0  0  0  0  0  0  0  0  0  0  0  0
    0.0000   -0.9644    0.0000 C   0  0  0  0  0  0  0  0  0  0  0  0
  1  2  2  0  0  0  0
  1  3  2  0  0  0  0
  1  4  1  0  0  0  0
  1  5  1  0  0  0  0
  4  6  2  0  0  0  0
  5  7  2  0  0  0  0
M  END
>  <Name>
Ethene, 1,1'-sulfonylbis-

>  <IGC50>
4.41

>  <CAS>
77-77-0

>  <SET>
ws

>  <Species>
Tetrahymena pyriformis

>  <Test duration>
48h

$$$$

  Mrv1808 07152009202D          

 10 10  0  0  0  0            999 V2000
    3.2946   -1.4266    0.0000 O   0  0  0  0  0  0  0  0  0  0  0  0
    2.4710   -1.4266    0.0000 C   0  0  0  0  0  0  0  0  0  0  0  0
    2.0591   -2.1414    0.0000 C   0  0  0  0  0  0  0  0  0  0  0  0
    2.0591   -0.7116    0.0000 C   0  0  0  0  0  0  0  0  0  0  0  0
    1.2354   -2.1414    0.0000 C   0  0  0  0  0  0  0  0  0  0  0  0
    2.4710   -2.8531    0.0000 Cl  0  0  0  0  0  0  0  0  0  0  0  0
    1.2354   -0.7116    0.0000 C   0  0  0  0  0  0  0  0  0  0  0  0
    2.4710    0.0000    0.0000 Cl  0  0  0  0  0  0  0  0  0  0  0  0
    0.8237   -1.4266    0.0000 C   0  0  0  0  0  0  0  0  0  0  0  0
    0.0000   -1.4266    0.0000 Cl  0  0  0  0  0  0  0  0  0  0  0  0
  1  2  1  0  0  0  0
  2  3  2  0  0  0  0
  2  4  1  0  0  0  0
  3  5  1  0  0  0  0
  3  6  1  0  0  0  0
  7  4  2  0  0  0  0
  4  8  1  0  0  0  0
  5  9  2  0  0  0  0
  9  7  1  0  0  0  0
  9 10  1  0  0  0  0
M  END
>  <Name>
Phenol, 2,4,6-trichloro-

>  <IGC50>
4.41

>  <CAS>
88-06-2

>  <SET>
ws

>  <Species>
Tetrahymena pyriformis

>  <Test duration>
48h

$$$$

  Mrv1808 07152009202D          

  9  9  0  0  0  0            999 V2000
    0.0000   -0.8251    0.0000 S   0  0  0  0  0  0  0  0  0  0  0  0
    0.7143   -1.2393    0.0000 C   0  0  0  0  0  0  0  0  0  0  0  0
    1.4287   -1.6501    0.0000 N   0  0  0  0  0  0  0  0  0  0  0  0
    2.1430   -1.2393    0.0000 C   0  0  0  0  0  0  0  0  0  0  0  0
    2.1430   -0.4143    0.0000 C   0  0  0  0  0  0  0  0  0  0  0  0
    2.8573   -1.6501    0.0000 C   0  0  0  0  0  0  0  0  0  0  0  0
    2.8573    0.0000    0.0000 C   0  0  0  0  0  0  0  0  0  0  0  0
    3.5716   -1.2393    0.0000 C   0  0  0  0  0  0  0  0  0  0  0  0
    3.5716   -0.4143    0.0000 C   0  0  0  0  0  0  0  0  0  0  0  0
  1  2  2  0  0  0  0
  2  3  2  0  0  0  0
  3  4  1  0  0  0  0
  4  5  2  0  0  0  0
  4  6  1  0  0  0  0
  5  7  1  0  0  0  0
  8  6  2  0  0  0  0
  7  9  2  0  0  0  0
  9  8  1  0  0  0  0
M  END
>  <Name>
Isothiocyanic acid, phenyl ester

>  <IGC50>
4.41

>  <CAS>
103-72-0

>  <SET>
ws

>  <Species>
Tetrahymena pyriformis

>  <Test duration>
48h

$$$$

  Mrv1808 07152009202D          

 17 19  0  0  0  0            999 V2000
    1.2375   -2.1429    0.0000 C   0  0  0  0  0  0  0  0  0  0  0  0
    0.4125   -2.1429    0.0000 C   0  0  0  0  0  0  0  0  0  0  0  0
    1.6500   -1.4304    0.0000 C   0  0  0  0  0  0  0  0  0  0  0  0
    0.0000   -1.4304    0.0000 C   0  0  0  0  0  0  0  0  0  0  0  0
    1.2375   -0.7125    0.0000 C   0  0  0  0  0  0  0  0  0  0  0  0
    2.4750   -1.4304    0.0000 C   0  0  0  0  0  0  0  0  0  0  0  0
    0.4125   -0.7125    0.0000 C   0  0  0  0  0  0  0  0  0  0  0  0
    2.8822   -0.7125    0.0000 C   0  0  0  0  0  0  0  0  0  0  0  0
    2.8822   -2.1429    0.0000 O   0  0  0  0  0  0  0  0  0  0  0  0
    3.7072   -0.7125    0.0000 C   0  0  0  0  0  0  0  0  0  0  0  0
    3.7072   -2.1429    0.0000 C   0  0  0  0  0  0  0  0  0  0  0  0
    4.1197    0.0000    0.0000 O   0  0  0  0  0  0  0  0  0  0  0  0
    4.1197   -1.4304    0.0000 C   0  0  0  0  0  0  0  0  0  0  0  0
    4.1197   -2.8554    0.0000 C   0  0  0  0  0  0  0  0  0  0  0  0
    4.9447   -1.4304    0.0000 C   0  0  0  0  0  0  0  0  0  0  0  0
    4.9447   -2.8554    0.0000 C   0  0  0  0  0  0  0  0  0  0  0  0
    5.3572   -2.1429    0.0000 C   0  0  0  0  0  0  0  0  0  0  0  0
  1  2  2  0  0  0  0
  1  3  1  0  0  0  0
  2  4  1  0  0  0  0
  5  3  2  0  0  0  0
  3  6  1  0  0  0  0
  4  7  2  0  0  0  0
  7  5  1  0  0  0  0
  6  8  2  0  0  0  0
  6  9  1  0  0  0  0
  8 10  1  0  0  0  0
 11  9  1  0  0  0  0
 10 12  2  0  0  0  0
 10 13  1  0  0  0  0
 13 11  1  0  0  0  0
 14 11  2  0  0  0  0
 13 15  2  0  0  0  0
 16 14  1  0  0  0  0
 15 17  1  0  0  0  0
 17 16  2  0  0  0  0
M  END
>  <Name>
Flavone (VAN) (8CI)

>  <IGC50>
4.41

>  <CAS>
525-82-6

>  <SET>
ws

>  <Species>
Tetrahymena pyriformis

>  <Test duration>
48h

$$$$

  Mrv1808 07152009202D          

 10 10  0  0  0  0            999 V2000
    2.0589    0.7291    0.0000 C   0  0  0  0  0  0  0  0  0  0  0  0
    1.2439    0.7291    0.0000 C   0  0  0  0  0  0  0  0  0  0  0  0
    2.4878    1.4155    0.0000 C   0  0  0  0  0  0  0  0  0  0  0  0
    2.4878    0.0000    0.0000 C   0  0  0  0  0  0  0  0  0  0  0  0
    0.8579    1.4155    0.0000 C   0  0  0  0  0  0  0  0  0  0  0  0
    0.8579    0.0000    0.0000 C   0  0  0  0  0  0  0  0  0  0  0  0
    2.0589    2.1875    0.0000 C   0  0  0  0  0  0  0  0  0  0  0  0
    3.3457    1.4155    0.0000 O   0  0  0  0  0  0  0  0  0  0  0  0
    1.2439    2.1875    0.0000 C   0  0  0  0  0  0  0  0  0  0  0  0
    0.0000    1.4155    0.0000 O   0  0  0  0  0  0  0  0  0  0  0  0
  2  1  2  0  0  0  0
  1  3  1  0  0  0  0
  1  4  1  0  0  0  0
  5  2  1  0  0  0  0
  2  6  1  0  0  0  0
  3  7  2  0  0  0  0
  3  8  1  0  0  0  0
  9  5  2  0  0  0  0
  5 10  1  0  0  0  0
  7  9  1  0  0  0  0
M  END
>  <Name>
Hydroquinone, 2,3-dimethyl- (8CI)

>  <IGC50>
4.41

>  <CAS>
608-43-5

>  <SET>
ws

>  <Species>
Tetrahymena pyriformis

>  <Test duration>
48h

$$$$

  Mrv1808 07152009203D          

  9  9  0  0  0  0            999 V2000
    3.6918    0.6476   -0.0002 Br  0  0  0  0  0  0  0  0  0  0  0  0
    1.8770    0.0873    0.0000 C   0  0  0  0  0  0  0  0  0  0  0  0
    0.5528    1.1731    0.0000 S   0  0  0  0  0  0  0  0  0  0  0  0
    1.4672   -1.2279    0.0002 C   0  0  0  0  0  0  0  0  0  0  0  0
   -0.5740   -0.1162    0.0001 C   0  0  0  0  0  0  0  0  0  0  0  0
    0.0472   -1.3457    0.0001 C   0  0  0  0  0  0  0  0  0  0  0  0
   -1.9459    0.1742   -0.0001 N   0  3  0  0  0  0  0  0  0  0  0  0
   -2.7854   -0.7701   -0.0003 O   0  5  0  0  0  0  0  0  0  0  0  0
   -2.3308    1.3776    0.0002 O   0  0  0  0  0  0  0  0  0  0  0  0
  1  2  1  0  0  0  0
  3  2  1  0  0  0  0
  4  2  2  0  0  0  0
  3  5  1  0  0  0  0
  6  4  1  0  0  0  0
  7  5  1  0  0  0  0
  5  6  2  0  0  0  0
  8  7  1  0  0  0  0
  9  7  2  0  0  0  0
M  CHG  2   7   1   8  -1
M  END
>  <Name>
2-bromanyl-5-nitro-thiophene

>  <IGC50>
4.41

>  <CAS>
13195-50-1

>  <SET>
ws

>  <Species>
Tetrahymena pyriformis

>  <Test duration>
48h

$$$$

  Mrv1808 07152009202D          

 13 13  0  0  0  0            999 V2000
    1.4293    2.0615    0.0000 C   0  0  0  0  0  0  0  0  0  0  0  0
    1.4293    1.2368    0.0000 C   0  0  0  0  0  0  0  0  0  0  0  0
    2.1439    2.4737    0.0000 C   0  0  0  0  0  0  0  0  0  0  0  0
    2.1439    0.8246    0.0000 C   0  0  0  0  0  0  0  0  0  0  0  0
    0.7147    0.8246    0.0000 N   0  3  0  0  0  0  0  0  0  0  0  0
    2.8585    2.0615    0.0000 C   0  0  0  0  0  0  0  0  0  0  0  0
    2.1439    3.2983    0.0000 O   0  0  0  0  0  0  0  0  0  0  0  0
    2.8585    1.2368    0.0000 C   0  0  0  0  0  0  0  0  0  0  0  0
    0.0000    1.2368    0.0000 O   0  5  0  0  0  0  0  0  0  0  0  0
    0.7147    0.0000    0.0000 O   0  0  0  0  0  0  0  0  0  0  0  0
    3.5732    0.8246    0.0000 N   0  3  0  0  0  0  0  0  0  0  0  0
    3.5732    0.0000    0.0000 O   0  5  0  0  0  0  0  0  0  0  0  0
    4.2878    1.2368    0.0000 O   0  0  0  0  0  0  0  0  0  0  0  0
  1  2  2  0  0  0  0
  1  3  1  0  0  0  0
  2  4  1  0  0  0  0
  2  5  1  0  0  0  0
  6  3  2  0  0  0  0
  3  7  1  0  0  0  0
  4  8  2  0  0  0  0
  5  9  1  0  0  0  0
  5 10  2  0  0  0  0
  8  6  1  0  0  0  0
  8 11  1  0  0  0  0
 11 12  1  0  0  0  0
 11 13  2  0  0  0  0
M  CHG  4   5   1   9  -1  11   1  12  -1
M  END
>  <Name>
3,5-dinitrophenol

>  <IGC50>
4.41

>  <CAS>
586-11-8

>  <SET>
ws

>  <Species>
Tetrahymena pyriformis

>  <Test duration>
48h

$$$$

  Mrv1808 07152009202D          

 14 16  0  0  0  0            999 V2000
   -1.4325    0.8122    0.0000 C   0  0  0  0  0  0  0  0  0  0  0  0
   -2.0993    0.3940    0.0000 C   0  0  0  0  0  0  0  0  0  0  0  0
   -0.6982    0.4289    0.0000 C   0  0  0  0  0  0  0  0  0  0  0  0
   -2.0801   -0.4311    0.0000 C   0  0  0  0  0  0  0  0  0  0  0  0
   -0.6803   -0.3959    0.0000 C   0  0  0  0  0  0  0  0  0  0  0  0
    0.0000    0.8361    0.0000 C   0  0  0  0  0  0  0  0  0  0  0  0
   -1.3959   -0.8202    0.0000 C   0  0  0  0  0  0  0  0  0  0  0  0
    0.0000   -0.7916    0.0000 N   0  0  0  0  0  0  0  0  0  0  0  0
    0.6983    0.4289    0.0000 C   0  0  0  0  0  0  0  0  0  0  0  0
    0.6804   -0.3959    0.0000 C   0  0  0  0  0  0  0  0  0  0  0  0
    1.4325    0.8122    0.0000 C   0  0  0  0  0  0  0  0  0  0  0  0
    1.3959   -0.8203    0.0000 C   0  0  0  0  0  0  0  0  0  0  0  0
    2.0992    0.3939    0.0000 C   0  0  0  0  0  0  0  0  0  0  0  0
    2.0800   -0.4311    0.0000 C   0  0  0  0  0  0  0  0  0  0  0  0
  1  2  1  0  0  0  0
  1  3  2  0  0  0  0
  2  4  2  0  0  0  0
  5  3  1  0  0  0  0
  6  3  1  0  0  0  0
  4  7  1  0  0  0  0
  7  5  2  0  0  0  0
  5  8  1  0  0  0  0
  9  6  2  0  0  0  0
  8 10  2  0  0  0  0
 10  9  1  0  0  0  0
 11  9  1  0  0  0  0
 10 12  1  0  0  0  0
 13 11  2  0  0  0  0
 12 14  2  0  0  0  0
 14 13  1  0  0  0  0
M  END
>  <Name>
Acridine

>  <IGC50>
4.4

>  <CAS>
260-94-6

>  <SET>
ws

>  <Species>
Tetrahymena pyriformis

>  <Test duration>
48h

$$$$

  Mrv1808 07152009202D          

  9  9  0  0  0  0            999 V2000
   -0.6974    0.9297    0.0000 C   0  0  0  0  0  0  0  0  0  0  0  0
   -0.6259    0.1045    0.0000 C   0  0  0  0  0  0  0  0  0  0  0  0
   -0.0040    1.3990    0.0000 C   0  0  0  0  0  0  0  0  0  0  0  0
   -1.3970    1.3350    0.0000 O   0  0  0  0  0  0  0  0  0  0  0  0
    0.1046   -0.2730    0.0000 C   0  0  0  0  0  0  0  0  0  0  0  0
   -1.5234   -0.5480    0.0000 Br  0  0  0  0  0  0  0  0  0  0  0  0
    0.7338    1.0298    0.0000 C   0  0  0  0  0  0  0  0  0  0  0  0
    0.7686    0.2077    0.0000 C   0  0  0  0  0  0  0  0  0  0  0  0
    1.7665   -0.2738    0.0000 Br  0  0  0  0  0  0  0  0  0  0  0  0
  1  2  1  0  0  0  0
  1  3  2  0  0  0  0
  1  4  1  0  0  0  0
  2  5  2  0  0  0  0
  2  6  1  0  0  0  0
  7  3  1  0  0  0  0
  5  8  1  0  0  0  0
  8  7  2  0  0  0  0
  8  9  1  0  0  0  0
M  END
>  <Name>
Phenol, 2,4-dibromo-

>  <IGC50>
4.4

>  <CAS>
615-58-7

>  <SET>
ws

>  <Species>
Tetrahymena pyriformis

>  <Test duration>
48h

$$$$

  Mrv1808 07152009203D          

 15 16  0  0  0  0            999 V2000
   -0.5739    2.3915    0.0005 O   0  0  0  0  0  0  0  0  0  0  0  0
   -0.4697    1.1559    0.0003 C   0  0  0  0  0  0  0  0  0  0  0  0
    0.9111    0.5845    0.0000 C   0  0  0  0  0  0  0  0  0  0  0  0
   -1.6592    0.3197   -0.0001 C   0  0  0  0  0  0  0  0  0  0  0  0
    1.5187    0.3337   -1.2079 C   0  0  0  0  0  0  0  0  0  0  0  0
    1.5186    0.3329    1.2081 C   0  0  0  0  0  0  0  0  0  0  0  0
   -1.5352   -1.0697    0.0002 C   0  0  0  0  0  0  0  0  0  0  0  0
   -2.9247    0.9067   -0.0002 C   0  0  0  0  0  0  0  0  0  0  0  0
    2.8077   -0.1994   -1.2080 C   0  0  0  0  0  0  0  0  0  0  0  0
    2.8076   -0.2000    1.2081 C   0  0  0  0  0  0  0  0  0  0  0  0
   -2.6763   -1.8720    0.0000 C   0  0  0  0  0  0  0  0  0  0  0  0
   -4.0658    0.1044   -0.0003 C   0  0  0  0  0  0  0  0  0  0  0  0
    3.4523   -0.4662   -0.0001 C   0  0  0  0  0  0  0  0  0  0  0  0
   -3.9415   -1.2850   -0.0001 C   0  0  0  0  0  0  0  0  0  0  0  0
    4.8303   -1.0369   -0.0003 C   0  0  0  0  0  0  0  0  0  0  0  0
  1  2  2  0  0  0  0
  3  2  1  0  0  0  0
  4  2  1  0  0  0  0
  3  5  2  0  0  0  0
  3  6  1  0  0  0  0
  4  7  2  0  0  0  0
  4  8  1  0  0  0  0
  5  9  1  0  0  0  0
  6 10  2  0  0  0  0
  7 11  1  0  0  0  0
  8 12  2  0  0  0  0
 13  9  2  0  0  0  0
 13 10  1  0  0  0  0
 11 14  2  0  0  0  0
 12 14  1  0  0  0  0
 13 15  1  0  0  0  0
M  END
>  <Name>
(4-methylphenyl)-phenylmethanone

>  <IGC50>
4.4

>  <CAS>
134-84-9

>  <SET>
ws

>  <Species>
Tetrahymena pyriformis

>  <Test duration>
48h

$$$$

  Mrv1808 07152009202D          

 13 14  0  0  0  0            999 V2000
    0.0000   -0.7163    0.0000 O   0  0  0  0  0  0  0  0  0  0  0  0
    0.8250   -0.7163    0.0000 C   0  0  0  0  0  0  0  0  0  0  0  0
    1.2351    0.0000    0.0000 C   0  0  0  0  0  0  0  0  0  0  0  0
    1.2351   -1.4277    0.0000 C   0  0  0  0  0  0  0  0  0  0  0  0
    2.0601    0.0000    0.0000 C   0  0  0  0  0  0  0  0  0  0  0  0
    2.0601   -1.4277    0.0000 C   0  0  0  0  0  0  0  0  0  0  0  0
    2.4701   -0.7163    0.0000 C   0  0  0  0  0  0  0  0  0  0  0  0
    3.2952   -0.7163    0.0000 C   0  0  0  0  0  0  0  0  0  0  0  0
    3.7052    0.0000    0.0000 C   0  0  0  0  0  0  0  0  0  0  0  0
    3.7052   -1.4277    0.0000 C   0  0  0  0  0  0  0  0  0  0  0  0
    4.5302    0.0000    0.0000 C   0  0  0  0  0  0  0  0  0  0  0  0
    4.5302   -1.4277    0.0000 C   0  0  0  0  0  0  0  0  0  0  0  0
    4.9403   -0.7163    0.0000 C   0  0  0  0  0  0  0  0  0  0  0  0
  1  2  1  0  0  0  0
  2  3  2  0  0  0  0
  2  4  1  0  0  0  0
  3  5  1  0  0  0  0
  6  4  2  0  0  0  0
  5  7  2  0  0  0  0
  7  6  1  0  0  0  0
  7  8  1  0  0  0  0
  8  9  2  0  0  0  0
  8 10  1  0  0  0  0
  9 11  1  0  0  0  0
 12 10  2  0  0  0  0
 11 13  2  0  0  0  0
 13 12  1  0  0  0  0
M  END
>  <Name>
(1,1'-Biphenyl)-4-ol

>  <IGC50>
4.39

>  <CAS>
92-69-3

>  <SET>
ws

>  <Species>
Tetrahymena pyriformis

>  <Test duration>
48h

$$$$

  Mrv1808 07152009203D          

 13 12  0  0  0  0            999 V2000
   -3.8898    0.2873   -0.0292 O   0  0  0  0  0  0  0  0  0  0  0  0
   -5.2184   -0.2447   -0.0490 C   0  0  0  0  0  0  0  0  0  0  0  0
   -2.8931   -0.6357    0.0255 C   0  0  0  0  0  0  0  0  0  0  0  0
   -6.2071    0.9000   -0.1101 C   0  0  0  0  0  0  0  0  0  0  0  0
   -3.0109   -1.8515    0.0589 O   0  0  0  0  0  0  0  0  0  0  0  0
   -1.5927   -0.0192    0.0413 C   0  0  0  0  0  0  0  0  0  0  0  0
   -0.5053    0.4905    0.0532 C   0  0  0  0  0  0  0  0  0  0  0  0
    0.8248    1.1148    0.0676 C   0  0  0  0  0  0  0  0  0  0  0  0
    1.9511    0.0797    0.0471 C   0  0  0  0  0  0  0  0  0  0  0  0
    3.3450    0.7166    0.0475 C   0  0  0  0  0  0  0  0  0  0  0  0
    4.4412   -0.3497   -0.0031 C   0  0  0  0  0  0  0  0  0  0  0  0
    5.8320    0.2836   -0.0325 C   0  0  0  0  0  0  0  0  0  0  0  0
    6.9232   -0.7717   -0.1173 C   0  0  0  0  0  0  0  0  0  0  0  0
  1  2  1  0  0  0  0
  1  3  1  0  0  0  0
  2  4  1  0  0  0  0
  5  3  2  0  0  0  0
  6  3  1  0  0  0  0
  7  6  3  0  0  0  0
  8  7  1  0  0  0  0
  9  8  1  0  0  0  0
 10  9  1  0  0  0  0
 10 11  1  0  0  0  0
 11 12  1  0  0  0  0
 12 13  1  0  0  0  0
M  END
>  <Name>
ethyl non-2-ynoate

>  <IGC50>
4.38

>  <CAS>
10031-92-2

>  <SET>
ws

>  <Species>
Tetrahymena pyriformis

>  <Test duration>
48h

$$$$

  Mrv1808 07152009202D          

 14 14  0  0  0  0            999 V2000
    5.3570    0.0000    0.0000 N   0  0  0  0  0  0  0  0  0  0  0  0
    4.9445   -0.7125    0.0000 C   0  0  0  0  0  0  0  0  0  0  0  0
    5.3570   -1.4303    0.0000 C   0  0  0  0  0  0  0  0  0  0  0  0
    4.1195   -0.7125    0.0000 C   0  0  0  0  0  0  0  0  0  0  0  0
    4.9445   -2.1428    0.0000 C   0  0  0  0  0  0  0  0  0  0  0  0
    3.7071   -1.4303    0.0000 C   0  0  0  0  0  0  0  0  0  0  0  0
    4.1195   -2.1428    0.0000 C   0  0  0  0  0  0  0  0  0  0  0  0
    3.7071   -2.8553    0.0000 O   0  0  0  0  0  0  0  0  0  0  0  0
    2.8821   -2.8553    0.0000 C   0  0  0  0  0  0  0  0  0  0  0  0
    2.4749   -2.1428    0.0000 C   0  0  0  0  0  0  0  0  0  0  0  0
    1.6499   -2.1428    0.0000 C   0  0  0  0  0  0  0  0  0  0  0  0
    1.2375   -1.4303    0.0000 C   0  0  0  0  0  0  0  0  0  0  0  0
    0.4125   -1.4303    0.0000 C   0  0  0  0  0  0  0  0  0  0  0  0
    0.0000   -0.7125    0.0000 C   0  0  0  0  0  0  0  0  0  0  0  0
  1  2  1  0  0  0  0
  2  3  2  0  0  0  0
  2  4  1  0  0  0  0
  3  5  1  0  0  0  0
  6  4  2  0  0  0  0
  5  7  2  0  0  0  0
  7  6  1  0  0  0  0
  7  8  1  0  0  0  0
  8  9  1  0  0  0  0
  9 10  1  0  0  0  0
 10 11  1  0  0  0  0
 11 12  1  0  0  0  0
 12 13  1  0  0  0  0
 13 14  1  0  0  0  0
M  END
>  <Name>
Benzenamine, 4-(hexyloxy)-

>  <IGC50>
4.38

>  <CAS>
39905-57-2

>  <SET>
ws

>  <Species>
Tetrahymena pyriformis

>  <Test duration>
48h

$$$$

  Mrv1808 07152009202D          

 13 12  0  0  0  0            999 V2000
    1.4101   -0.8304    0.0000 C   0  0  0  0  0  0  0  0  0  0  0  0
    2.1387   -1.2456    0.0000 C   0  0  0  0  0  0  0  0  0  0  0  0
    0.7129   -1.2456    0.0000 O   0  0  0  0  0  0  0  0  0  0  0  0
    1.4101    0.0000    0.0000 O   0  0  0  0  0  0  0  0  0  0  0  0
    2.8516   -0.8304    0.0000 C   0  0  0  0  0  0  0  0  0  0  0  0
    0.0000   -0.8304    0.0000 C   0  0  0  0  0  0  0  0  0  0  0  0
    3.5489   -1.2456    0.0000 C   0  0  0  0  0  0  0  0  0  0  0  0
    4.2853   -0.8304    0.0000 C   0  0  0  0  0  0  0  0  0  0  0  0
    4.9826   -1.2456    0.0000 C   0  0  0  0  0  0  0  0  0  0  0  0
    5.6955   -0.8304    0.0000 C   0  0  0  0  0  0  0  0  0  0  0  0
    6.3927   -1.2456    0.0000 C   0  0  0  0  0  0  0  0  0  0  0  0
    7.1213   -0.8304    0.0000 C   0  0  0  0  0  0  0  0  0  0  0  0
    7.8342   -1.2456    0.0000 C   0  0  0  0  0  0  0  0  0  0  0  0
  1  2  1  0  0  0  0
  1  3  1  0  0  0  0
  1  4  2  0  0  0  0
  2  5  1  0  0  0  0
  3  6  1  0  0  0  0
  5  7  1  0  0  0  0
  7  8  1  0  0  0  0
  8  9  1  0  0  0  0
  9 10  1  0  0  0  0
 10 11  1  0  0  0  0
 11 12  1  0  0  0  0
 12 13  1  0  0  0  0
M  END
>  <Name>
Decanoic acid, methyl ester

>  <IGC50>
4.378

>  <CAS>
110-42-9

>  <SET>
ws

>  <Species>
Tetrahymena pyriformis

>  <Test duration>
48h

$$$$

  Mrv1808 07152009202D          

  9  9  0  0  0  0            999 V2000
    2.8594   -1.6499    0.0000 N   0  0  0  0  0  0  0  0  0  0  0  0
    2.1445   -1.2381    0.0000 C   0  0  0  0  0  0  0  0  0  0  0  0
    1.4297   -1.6499    0.0000 C   0  0  0  0  0  0  0  0  0  0  0  0
    2.1445   -0.4118    0.0000 C   0  0  0  0  0  0  0  0  0  0  0  0
    0.7148   -1.2381    0.0000 C   0  0  0  0  0  0  0  0  0  0  0  0
    1.4297    0.0000    0.0000 C   0  0  0  0  0  0  0  0  0  0  0  0
    0.0000   -1.6499    0.0000 Cl  0  0  0  0  0  0  0  0  0  0  0  0
    0.7148   -0.4118    0.0000 C   0  0  0  0  0  0  0  0  0  0  0  0
    0.0000    0.0000    0.0000 Cl  0  0  0  0  0  0  0  0  0  0  0  0
  1  2  1  0  0  0  0
  2  3  2  0  0  0  0
  2  4  1  0  0  0  0
  3  5  1  0  0  0  0
  6  4  2  0  0  0  0
  5  7  1  0  0  0  0
  5  8  2  0  0  0  0
  8  6  1  0  0  0  0
  8  9  1  0  0  0  0
M  END
>  <Name>
Benzenamine, 3,4-dichloro-

>  <IGC50>
4.37

>  <CAS>
95-76-1

>  <SET>
ws

>  <Species>
Tetrahymena pyriformis

>  <Test duration>
48h

$$$$

  Mrv1808 07152009203D          

 15 16  0  0  0  0            999 V2000
    0.0000    0.0000    0.0000 O   0  0  0  0  0  0  0  0  0  0  0  0
    0.6200   -1.0200    0.1200 C   0  0  0  0  0  0  0  0  0  0  0  0
    2.1000   -1.0000    0.3600 C   0  0  0  0  0  0  0  0  0  0  0  0
   -0.0600   -2.3400    0.0400 C   0  0  0  0  0  0  0  0  0  0  0  0
    2.6400   -1.4000    1.6200 C   0  0  0  0  0  0  0  0  0  0  0  0
    2.9600   -0.6000   -0.6600 C   0  0  0  0  0  0  0  0  0  0  0  0
    0.7000   -3.5400    0.0400 C   0  0  0  0  0  0  0  0  0  0  0  0
   -1.4600   -2.4200   -0.0600 C   0  0  0  0  0  0  0  0  0  0  0  0
    4.0200   -1.3600    1.8200 C   0  0  0  0  0  0  0  0  0  0  0  0
    1.7400   -1.8400    2.7200 C   0  0  0  0  0  0  0  0  0  0  0  0
    4.3600   -0.5600   -0.4600 C   0  0  0  0  0  0  0  0  0  0  0  0
    0.0600   -4.7800   -0.0400 C   0  0  0  0  0  0  0  0  0  0  0  0
   -2.1000   -3.6600   -0.1600 C   0  0  0  0  0  0  0  0  0  0  0  0
    4.8800   -0.9600    0.7800 C   0  0  0  0  0  0  0  0  0  0  0  0
   -1.3400   -4.8400   -0.1400 C   0  0  0  0  0  0  0  0  0  0  0  0
  1  2  2  0  0  0  0
  2  3  1  0  0  0  0
  2  4  1  0  0  0  0
  3  5  2  0  0  0  0
  3  6  1  0  0  0  0
  4  7  2  0  0  0  0
  4  8  1  0  0  0  0
  5  9  1  0  0  0  0
  5 10  1  0  0  0  0
 11  6  2  0  0  0  0
  7 12  1  0  0  0  0
 13  8  2  0  0  0  0
  9 14  2  0  0  0  0
 14 11  1  0  0  0  0
 12 15  2  0  0  0  0
 15 13  1  0  0  0  0
M  END
>  <Name>
(2-methylphenyl)-phenylmethanone

>  <IGC50>
4.37

>  <CAS>
131-58-8

>  <SET>
ws

>  <Species>
Tetrahymena pyriformis

>  <Test duration>
48h

$$$$

  Mrv1808 07152009202D          

 14 14  0  0  0  0            999 V2000
    2.8464    1.2788    0.0000 O   0  0  0  0  0  0  0  0  0  0  0  0
    2.1039    1.6501    0.0000 C   0  0  0  0  0  0  0  0  0  0  0  0
    3.5476    1.6913    0.0000 C   0  0  0  0  0  0  0  0  0  0  0  0
    2.1039    2.5163    0.0000 O   0  0  0  0  0  0  0  0  0  0  0  0
    1.4438    1.2375    0.0000 C   0  0  0  0  0  0  0  0  0  0  0  0
    4.2902    1.2788    0.0000 C   0  0  0  0  0  0  0  0  0  0  0  0
    0.7013    1.6501    0.0000 C   0  0  0  0  0  0  0  0  0  0  0  0
    1.4438    0.4125    0.0000 C   0  0  0  0  0  0  0  0  0  0  0  0
    4.9914    1.6913    0.0000 C   0  0  0  0  0  0  0  0  0  0  0  0
    0.0000    1.2375    0.0000 C   0  0  0  0  0  0  0  0  0  0  0  0
    0.7013    0.0000    0.0000 C   0  0  0  0  0  0  0  0  0  0  0  0
    5.7339    1.2788    0.0000 C   0  0  0  0  0  0  0  0  0  0  0  0
    0.0000    0.4125    0.0000 C   0  0  0  0  0  0  0  0  0  0  0  0
    6.4352    1.6913    0.0000 C   0  0  0  0  0  0  0  0  0  0  0  0
  1  2  1  0  0  0  0
  1  3  1  0  0  0  0
  2  4  2  0  0  0  0
  2  5  1  0  0  0  0
  3  6  1  0  0  0  0
  7  5  2  0  0  0  0
  5  8  1  0  0  0  0
  6  9  1  0  0  0  0
 10  7  1  0  0  0  0
  8 11  2  0  0  0  0
  9 12  1  0  0  0  0
 13 10  2  0  0  0  0
 11 13  1  0  0  0  0
 12 14  1  0  0  0  0
M  END
>  <Name>
Benzoic acid, pentyl ester

>  <IGC50>
4.37

>  <CAS>
2049-96-9

>  <SET>
ws

>  <Species>
Tetrahymena pyriformis

>  <Test duration>
48h

$$$$

  Mrv1808 07152009202D          

 11 11  0  0  0  0            999 V2000
    0.0418    2.1750    0.0000 O   0  0  0  0  0  0  0  0  0  0  0  0
    0.4182    1.4639    0.0000 N   0  0  0  0  0  0  0  0  0  0  0  0
    0.0000    0.7529    0.0000 O   0  0  0  0  0  0  0  0  0  0  0  0
    1.2966    1.4639    0.0000 C   0  0  0  0  0  0  0  0  0  0  0  0
    1.7149    2.1750    0.0000 C   0  0  0  0  0  0  0  0  0  0  0  0
    1.7149    0.7529    0.0000 C   0  0  0  0  0  0  0  0  0  0  0  0
    1.2966    2.9279    0.0000 Br  0  0  0  0  0  0  0  0  0  0  0  0
    2.5514    2.1750    0.0000 C   0  0  0  0  0  0  0  0  0  0  0  0
    2.5514    0.7529    0.0000 C   0  0  0  0  0  0  0  0  0  0  0  0
    2.9697    1.4639    0.0000 C   0  0  0  0  0  0  0  0  0  0  0  0
    2.9697    0.0000    0.0000 Br  0  0  0  0  0  0  0  0  0  0  0  0
  1  2  2  0  0  0  0
  2  3  2  0  0  0  0
  2  4  1  0  0  0  0
  5  4  2  0  0  0  0
  4  6  1  0  0  0  0
  5  7  1  0  0  0  0
  8  5  1  0  0  0  0
  6  9  2  0  0  0  0
 10  8  2  0  0  0  0
  9 10  1  0  0  0  0
  9 11  1  0  0  0  0
M  END
>  <Name>
1,4-Dibromo-2-nitrobenzene

>  <IGC50>
4.37

>  <CAS>
3460-18-2

>  <SET>
ws

>  <Species>
Tetrahymena pyriformis

>  <Test duration>
48h

$$$$

  Mrv1808 07152009202D          

 16 17  0  0  0  0            999 V2000
    5.0326    1.8150    0.0000 C   0  0  0  0  0  0  0  0  0  0  0  0
    5.8576    1.8150    0.0000 C   0  0  0  0  0  0  0  0  0  0  0  0
    4.6201    1.1138    0.0000 C   0  0  0  0  0  0  0  0  0  0  0  0
    6.2701    1.1138    0.0000 C   0  0  0  0  0  0  0  0  0  0  0  0
    5.0326    0.4125    0.0000 C   0  0  0  0  0  0  0  0  0  0  0  0
    3.9189    0.7013    0.0000 O   0  0  0  0  0  0  0  0  0  0  0  0
    5.8576    0.4125    0.0000 C   0  0  0  0  0  0  0  0  0  0  0  0
    3.2176    1.1138    0.0000 C   0  0  0  0  0  0  0  0  0  0  0  0
    3.2176    1.9388    0.0000 O   0  0  0  0  0  0  0  0  0  0  0  0
    2.4751    0.7013    0.0000 C   0  0  0  0  0  0  0  0  0  0  0  0
    2.1038    1.4025    0.0000 C   0  0  0  0  0  0  0  0  0  0  0  0
    2.1038    0.0000    0.0000 C   0  0  0  0  0  0  0  0  0  0  0  0
    1.2787    1.4025    0.0000 C   0  0  0  0  0  0  0  0  0  0  0  0
    1.2787    0.0000    0.0000 C   0  0  0  0  0  0  0  0  0  0  0  0
    0.8250    0.7013    0.0000 C   0  0  0  0  0  0  0  0  0  0  0  0
    0.0000    0.7013    0.0000 O   0  0  0  0  0  0  0  0  0  0  0  0
  1  2  2  0  0  0  0
  3  1  1  0  0  0  0
  2  4  1  0  0  0  0
  5  3  2  0  0  0  0
  3  6  1  0  0  0  0
  4  7  2  0  0  0  0
  7  5  1  0  0  0  0
  8  6  1  0  0  0  0
  9  8  2  0  0  0  0
  8 10  1  0  0  0  0
 11 10  2  0  0  0  0
 10 12  1  0  0  0  0
 13 11  1  0  0  0  0
 12 14  2  0  0  0  0
 15 13  2  0  0  0  0
 14 15  1  0  0  0  0
 16 15  1  0  0  0  0
M  END
>  <Name>
Phenyl 4-hydroxybenzoate

>  <IGC50>
4.37

>  <CAS>
17696-62-7

>  <SET>
ws

>  <Species>
Tetrahymena pyriformis

>  <Test duration>
48h

$$$$

  Mrv1808 07152009203D          

 14 15  0  0  0  0            999 V2000
   -0.9217   -2.0479    0.0006 O   0  0  0  0  0  0  0  0  0  0  0  0
   -0.5064   -0.7441   -0.0005 C   0  0  0  0  0  0  0  0  0  0  0  0
    0.8639   -0.4367   -0.0002 C   0  0  0  0  0  0  0  0  0  0  0  0
   -1.4639    0.2708   -0.0002 C   0  0  0  0  0  0  0  0  0  0  0  0
    1.2688    0.9194    0.0001 C   0  0  0  0  0  0  0  0  0  0  0  0
    1.8413   -1.4451   -0.0003 C   0  0  0  0  0  0  0  0  0  0  0  0
   -2.8531   -0.0354    0.0002 N   0  3  0  0  0  0  0  0  0  0  0  0
   -1.0657    1.6044   -0.0003 C   0  0  0  0  0  0  0  0  0  0  0  0
    0.2915    1.9281   -0.0001 C   0  0  0  0  0  0  0  0  0  0  0  0
    2.6391    1.2270    0.0002 C   0  0  0  0  0  0  0  0  0  0  0  0
    3.1983   -1.1213    0.0000 C   0  0  0  0  0  0  0  0  0  0  0  0
   -3.6806    0.9061    0.0004 O   0  5  0  0  0  0  0  0  0  0  0  0
   -3.2081   -1.2376   -0.0002 O   0  0  0  0  0  0  0  0  0  0  0  0
    3.5965    0.2123    0.0004 C   0  0  0  0  0  0  0  0  0  0  0  0
  1  2  1  0  0  0  0
  3  2  1  0  0  0  0
  2  4  2  0  0  0  0
  3  5  1  0  0  0  0
  3  6  2  0  0  0  0
  7  4  1  0  0  0  0
  4  8  1  0  0  0  0
  5  9  1  0  0  0  0
  5 10  2  0  0  0  0
  6 11  1  0  0  0  0
 12  7  1  0  0  0  0
 13  7  2  0  0  0  0
  9  8  2  0  0  0  0
 10 14  1  0  0  0  0
 11 14  2  0  0  0  0
M  CHG  2   7   1  12  -1
M  END
>  <Name>
2-nitronaphthalen-1-ol

>  <IGC50>
4.36

>  <CAS>
607-24-9

>  <SET>
ws

>  <Species>
Tetrahymena pyriformis

>  <Test duration>
48h

$$$$

  Mrv1808 07152009202D          

 14 15  0  0  0  0            999 V2000
    3.5701   -0.4150    0.0000 C   0  0  0  0  0  0  0  0  0  0  0  0
    4.2852    0.0000    0.0000 C   0  0  0  0  0  0  0  0  0  0  0  0
    3.5701   -1.2400    0.0000 C   0  0  0  0  0  0  0  0  0  0  0  0
    5.0002   -0.4150    0.0000 C   0  0  0  0  0  0  0  0  0  0  0  0
    4.2852   -1.6501    0.0000 C   0  0  0  0  0  0  0  0  0  0  0  0
    2.8551   -1.6501    0.0000 O   0  0  0  0  0  0  0  0  0  0  0  0
    5.0002   -1.2400    0.0000 C   0  0  0  0  0  0  0  0  0  0  0  0
    2.1451   -1.2400    0.0000 C   0  0  0  0  0  0  0  0  0  0  0  0
    1.4300   -1.6501    0.0000 C   0  0  0  0  0  0  0  0  0  0  0  0
    2.1451   -0.4150    0.0000 C   0  0  0  0  0  0  0  0  0  0  0  0
    0.7150   -1.2400    0.0000 C   0  0  0  0  0  0  0  0  0  0  0  0
    1.4300    0.0000    0.0000 C   0  0  0  0  0  0  0  0  0  0  0  0
    0.7150   -0.4150    0.0000 C   0  0  0  0  0  0  0  0  0  0  0  0
    0.0000    0.0000    0.0000 O   0  0  0  0  0  0  0  0  0  0  0  0
  1  2  2  0  0  0  0
  1  3  1  0  0  0  0
  2  4  1  0  0  0  0
  5  3  2  0  0  0  0
  3  6  1  0  0  0  0
  4  7  2  0  0  0  0
  7  5  1  0  0  0  0
  6  8  1  0  0  0  0
  8  9  2  0  0  0  0
  8 10  1  0  0  0  0
  9 11  1  0  0  0  0
 12 10  2  0  0  0  0
 11 13  2  0  0  0  0
 13 12  1  0  0  0  0
 13 14  1  0  0  0  0
M  END
>  <Name>
Phenol, p-phenoxy- (8CI)

>  <IGC50>
4.36

>  <CAS>
831-82-3

>  <SET>
ws

>  <Species>
Tetrahymena pyriformis

>  <Test duration>
48h

$$$$

  Mrv1808 07152009203D          

 13 13  0  0  0  0            999 V2000
   -0.2329    0.8633    0.6265 O   0  0  0  0  0  0  0  0  0  0  0  0
   -1.2543   -0.1187    0.5211 C   0  0  0  0  0  0  0  0  0  0  0  0
    1.0437    0.4624    0.3287 C   0  0  0  0  0  0  0  0  0  0  0  0
   -2.5644    0.5703    0.1665 C   0  0  0  0  0  0  0  0  0  0  0  0
    1.4207   -0.8562    0.5554 C   0  0  0  0  0  0  0  0  0  0  0  0
    1.9476    1.3786   -0.1966 C   0  0  0  0  0  0  0  0  0  0  0  0
   -3.7074   -0.4320    0.0214 C   0  0  0  0  0  0  0  0  0  0  0  0
    2.7196   -1.2644    0.2528 C   0  0  0  0  0  0  0  0  0  0  0  0
    3.2466    0.9702   -0.4992 C   0  0  0  0  0  0  0  0  0  0  0  0
   -5.0094    0.2630   -0.3759 C   0  0  0  0  0  0  0  0  0  0  0  0
    3.6325   -0.3513   -0.2746 C   0  0  0  0  0  0  0  0  0  0  0  0
   -6.1420   -0.7355   -0.5544 C   0  0  0  0  0  0  0  0  0  0  0  0
    4.8997   -0.7497   -0.5717 O   0  0  0  0  0  0  0  0  0  0  0  0
  1  2  1  0  0  0  0
  1  3  1  0  0  0  0
  4  2  1  0  0  0  0
  3  5  2  0  0  0  0
  3  6  1  0  0  0  0
  7  4  1  0  0  0  0
  5  8  1  0  0  0  0
  6  9  2  0  0  0  0
  7 10  1  0  0  0  0
  8 11  2  0  0  0  0
  9 11  1  0  0  0  0
 10 12  1  0  0  0  0
 13 11  1  0  0  0  0
M  END
>  <Name>
4-pentoxyphenol

>  <IGC50>
4.36

>  <CAS>
18979-53-8

>  <SET>
ws

>  <Species>
Tetrahymena pyriformis

>  <Test duration>
48h

$$$$

  Mrv1808 07152009202D          

  8  7  0  0  0  0            999 V2000
    0.0000    0.0000    0.0000 C   0  0  0  0  0  0  0  0  0  0  0  0
    0.7111    0.4183    0.0000 C   0  0  0  0  0  0  0  0  0  0  0  0
    1.4641    0.0000    0.0000 C   0  0  0  0  0  0  0  0  0  0  0  0
    2.1752    0.4183    0.0000 C   0  0  0  0  0  0  0  0  0  0  0  0
    2.8445    0.0000    0.0000 C   0  0  0  0  0  0  0  0  0  0  0  0
    3.5975    0.4183    0.0000 C   0  0  0  0  0  0  0  0  0  0  0  0
    4.3085    0.0000    0.0000 C   0  0  0  0  0  0  0  0  0  0  0  0
    5.0197    0.4601    0.0000 Cl  0  0  0  0  0  0  0  0  0  0  0  0
  1  2  1  0  0  0  0
  2  3  1  0  0  0  0
  3  4  1  0  0  0  0
  4  5  1  0  0  0  0
  5  6  1  0  0  0  0
  6  7  1  0  0  0  0
  7  8  1  0  0  0  0
M  END
>  <Name>
1-chloroheptane

>  <IGC50>
4.36

>  <CAS>
629-06-1

>  <SET>
ws

>  <Species>
Tetrahymena pyriformis

>  <Test duration>
48h

$$$$

  Mrv1808 07152009202D          

 18 17  0  0  0  0            999 V2000
   10.0008   -2.0601    0.0000 C   0  0  0  0  0  0  0  0  0  0  0  0
   10.0008   -1.2401    0.0000 C   0  0  0  0  0  0  0  0  0  0  0  0
    9.2908   -0.8201    0.0000 O   0  0  0  0  0  0  0  0  0  0  0  0
    8.5707   -1.2401    0.0000 C   0  0  0  0  0  0  0  0  0  0  0  0
    8.5707   -2.0601    0.0000 O   0  0  0  0  0  0  0  0  0  0  0  0
    7.8606   -0.8201    0.0000 C   0  0  0  0  0  0  0  0  0  0  0  0
    7.1406   -1.2401    0.0000 C   0  0  0  0  0  0  0  0  0  0  0  0
    6.4305   -0.8201    0.0000 C   0  0  0  0  0  0  0  0  0  0  0  0
    5.7105   -1.2401    0.0000 C   0  0  0  0  0  0  0  0  0  0  0  0
    5.0004   -0.8201    0.0000 C   0  0  0  0  0  0  0  0  0  0  0  0
    4.2904   -1.2401    0.0000 C   0  0  0  0  0  0  0  0  0  0  0  0
    3.5703   -0.8201    0.0000 C   0  0  0  0  0  0  0  0  0  0  0  0
    2.8603   -1.2401    0.0000 C   0  0  0  0  0  0  0  0  0  0  0  0
    2.1402   -0.8201    0.0000 C   0  0  0  0  0  0  0  0  0  0  0  0
    2.1402    0.0000    0.0000 O   0  0  0  0  0  0  0  0  0  0  0  0
    1.4301   -1.2401    0.0000 O   0  0  0  0  0  0  0  0  0  0  0  0
    0.7101   -0.8201    0.0000 C   0  0  0  0  0  0  0  0  0  0  0  0
    0.0000   -1.2401    0.0000 C   0  0  0  0  0  0  0  0  0  0  0  0
  1  2  1  0  0  0  0
  2  3  1  0  0  0  0
  3  4  1  0  0  0  0
  4  5  2  0  0  0  0
  4  6  1  0  0  0  0
  6  7  1  0  0  0  0
  7  8  1  0  0  0  0
  8  9  1  0  0  0  0
  9 10  1  0  0  0  0
 10 11  1  0  0  0  0
 11 12  1  0  0  0  0
 12 13  1  0  0  0  0
 13 14  1  0  0  0  0
 14 15  2  0  0  0  0
 14 16  1  0  0  0  0
 16 17  1  0  0  0  0
 17 18  1  0  0  0  0
M  END
>  <Name>
Decanedioic acid, diethyl ester

>  <IGC50>
4.354

>  <CAS>
110-40-7

>  <SET>
ws

>  <Species>
Tetrahymena pyriformis

>  <Test duration>
48h

$$$$

  Mrv1808 07152009202D          

 15 16  0  0  0  0            999 V2000
    2.8521    1.2224    0.0000 O   0  0  0  0  0  0  0  0  0  0  0  0
    2.1187    1.6298    0.0000 C   0  0  0  0  0  0  0  0  0  0  0  0
    3.5448    1.5891    0.0000 C   0  0  0  0  0  0  0  0  0  0  0  0
    2.1187    2.4446    0.0000 O   0  0  0  0  0  0  0  0  0  0  0  0
    1.4261    1.2630    0.0000 C   0  0  0  0  0  0  0  0  0  0  0  0
    3.5448    2.4446    0.0000 C   0  0  0  0  0  0  0  0  0  0  0  0
    4.2374    1.1816    0.0000 C   0  0  0  0  0  0  0  0  0  0  0  0
    0.7334    1.6705    0.0000 C   0  0  0  0  0  0  0  0  0  0  0  0
    1.4261    0.4075    0.0000 C   0  0  0  0  0  0  0  0  0  0  0  0
    4.2782    2.8521    0.0000 C   0  0  0  0  0  0  0  0  0  0  0  0
    4.9708    1.5891    0.0000 C   0  0  0  0  0  0  0  0  0  0  0  0
    0.0000    1.2630    0.0000 C   0  0  0  0  0  0  0  0  0  0  0  0
    0.6926    0.0000    0.0000 C   0  0  0  0  0  0  0  0  0  0  0  0
    4.9708    2.4040    0.0000 C   0  0  0  0  0  0  0  0  0  0  0  0
    0.0000    0.4482    0.0000 C   0  0  0  0  0  0  0  0  0  0  0  0
  1  2  1  0  0  0  0
  1  3  1  0  0  0  0
  2  4  2  0  0  0  0
  2  5  1  0  0  0  0
  3  6  2  0  0  0  0
  7  3  1  0  0  0  0
  8  5  2  0  0  0  0
  5  9  1  0  0  0  0
  6 10  1  0  0  0  0
 11  7  2  0  0  0  0
 12  8  1  0  0  0  0
  9 13  2  0  0  0  0
 10 14  2  0  0  0  0
 14 11  1  0  0  0  0
 15 12  2  0  0  0  0
 13 15  1  0  0  0  0
M  END
>  <Name>
Benzoic acid, phenyl ester

>  <IGC50>
4.35

>  <CAS>
93-99-2

>  <SET>
ws

>  <Species>
Tetrahymena pyriformis

>  <Test duration>
48h

$$$$

  Mrv1808 07152009202D          

 10 10  0  0  0  0            999 V2000
    0.0000   -1.4321    0.0000 N   0  0  0  0  0  0  0  0  0  0  0  0
    0.8250   -1.4321    0.0000 C   0  0  0  0  0  0  0  0  0  0  0  0
    1.2374   -0.7161    0.0000 C   0  0  0  0  0  0  0  0  0  0  0  0
    1.2374   -2.1449    0.0000 C   0  0  0  0  0  0  0  0  0  0  0  0
    0.8250    0.0000    0.0000 Cl  0  0  0  0  0  0  0  0  0  0  0  0
    2.0624   -0.7161    0.0000 C   0  0  0  0  0  0  0  0  0  0  0  0
    2.0624   -2.1449    0.0000 C   0  0  0  0  0  0  0  0  0  0  0  0
    2.4749    0.0000    0.0000 Cl  0  0  0  0  0  0  0  0  0  0  0  0
    2.4749   -1.4321    0.0000 C   0  0  0  0  0  0  0  0  0  0  0  0
    3.2999   -1.4321    0.0000 Cl  0  0  0  0  0  0  0  0  0  0  0  0
  1  2  1  0  0  0  0
  2  3  2  0  0  0  0
  2  4  1  0  0  0  0
  3  5  1  0  0  0  0
  3  6  1  0  0  0  0
  7  4  2  0  0  0  0
  6  8  1  0  0  0  0
  6  9  2  0  0  0  0
  9  7  1  0  0  0  0
  9 10  1  0  0  0  0
M  END
>  <Name>
Benzenamine, 2,3,4-trichloro- (9CI)

>  <IGC50>
4.35

>  <CAS>
634-67-3

>  <SET>
ws

>  <Species>
Tetrahymena pyriformis

>  <Test duration>
48h

$$$$

  Mrv1808 07152009202D          

 12 12  0  0  0  0            999 V2000
    4.8893    0.4075    0.0000 C   0  0  0  0  0  0  0  0  0  0  0  0
    4.8893    1.2223    0.0000 C   0  0  0  0  0  0  0  0  0  0  0  0
    4.1967    0.0000    0.0000 C   0  0  0  0  0  0  0  0  0  0  0  0
    4.1967    1.6705    0.0000 C   0  0  0  0  0  0  0  0  0  0  0  0
    3.4633    0.4075    0.0000 C   0  0  0  0  0  0  0  0  0  0  0  0
    3.4633    1.2630    0.0000 C   0  0  0  0  0  0  0  0  0  0  0  0
    2.7706    1.6705    0.0000 C   0  0  0  0  0  0  0  0  0  0  0  0
    2.0780    1.2223    0.0000 O   0  0  0  0  0  0  0  0  0  0  0  0
    1.3853    1.6705    0.0000 C   0  0  0  0  0  0  0  0  0  0  0  0
    0.6926    1.2223    0.0000 C   0  0  0  0  0  0  0  0  0  0  0  0
    1.3853    2.4854    0.0000 O   0  0  0  0  0  0  0  0  0  0  0  0
    0.0000    1.5483    0.0000 C   0  0  0  0  0  0  0  0  0  0  0  0
  2  1  2  0  0  0  0
  1  3  1  0  0  0  0
  4  2  1  0  0  0  0
  3  5  2  0  0  0  0
  6  4  2  0  0  0  0
  5  6  1  0  0  0  0
  6  7  1  0  0  0  0
  8  7  1  0  0  0  0
  9  8  1  0  0  0  0
 10  9  1  0  0  0  0
  9 11  2  0  0  0  0
 10 12  2  0  0  0  0
M  END
>  <Name>
2-Propenoic acid, phenylmethyl ester

>  <IGC50>
4.35

>  <CAS>
2495-35-4

>  <SET>
ws

>  <Species>
Tetrahymena pyriformis

>  <Test duration>
48h

$$$$

  Mrv1808 07152009202D          

 10  9  0  0  0  0            999 V2000
    1.2375    2.1451    0.0000 C   0  0  0  0  0  0  0  0  0  0  0  0
    0.8250    1.4025    0.0000 C   0  0  0  0  0  0  0  0  0  0  0  0
    2.0625    2.1451    0.0000 C   0  0  0  0  0  0  0  0  0  0  0  0
    0.0000    1.4025    0.0000 C   0  0  0  0  0  0  0  0  0  0  0  0
    2.4751    1.4025    0.0000 C   0  0  0  0  0  0  0  0  0  0  0  0
    3.3001    1.4025    0.0000 C   0  0  0  0  0  0  0  0  0  0  0  0
    3.7125    0.7012    0.0000 C   0  0  0  0  0  0  0  0  0  0  0  0
    4.5376    0.7012    0.0000 C   0  0  0  0  0  0  0  0  0  0  0  0
    4.9501    0.0000    0.0000 C   0  0  0  0  0  0  0  0  0  0  0  0
    5.7751    0.0000    0.0000 O   0  0  0  0  0  0  0  0  0  0  0  0
  1  2  1  0  0  0  0
  1  3  2  0  0  0  0
  2  4  1  0  0  0  0
  3  5  1  0  0  0  0
  5  6  1  0  0  0  0
  6  7  1  0  0  0  0
  7  8  2  0  0  0  0
  8  9  1  0  0  0  0
  9 10  2  0  0  0  0
M  END
>  <Name>
(2E,6Z)-Nona-2,6-dien-1-al

>  <IGC50>
4.34

>  <CAS>
557-48-2

>  <SET>
ws

>  <Species>
Tetrahymena pyriformis

>  <Test duration>
48h

$$$$

  Mrv1808 07152009202D          

 12 12  0  0  0  0            999 V2000
    1.6500   -2.1443    0.0000 C   0  0  0  0  0  0  0  0  0  0  0  0
    1.2375   -1.4307    0.0000 C   0  0  0  0  0  0  0  0  0  0  0  0
    2.4787   -2.1443    0.0000 C   0  0  0  0  0  0  0  0  0  0  0  0
    0.4125   -1.4307    0.0000 C   0  0  0  0  0  0  0  0  0  0  0  0
    1.6500   -0.7135    0.0000 C   0  0  0  0  0  0  0  0  0  0  0  0
    2.8912   -1.4307    0.0000 C   0  0  0  0  0  0  0  0  0  0  0  0
    0.0000   -0.7135    0.0000 O   0  0  0  0  0  0  0  0  0  0  0  0
    0.0000   -2.1443    0.0000 C   0  0  0  0  0  0  0  0  0  0  0  0
    1.2375    0.0000    0.0000 Cl  0  0  0  0  0  0  0  0  0  0  0  0
    2.4787   -0.7135    0.0000 C   0  0  0  0  0  0  0  0  0  0  0  0
    3.7162   -1.4307    0.0000 Cl  0  0  0  0  0  0  0  0  0  0  0  0
    2.8912    0.0000    0.0000 Cl  0  0  0  0  0  0  0  0  0  0  0  0
  1  2  2  0  0  0  0
  1  3  1  0  0  0  0
  2  4  1  0  0  0  0
  2  5  1  0  0  0  0
  6  3  2  0  0  0  0
  4  7  2  0  0  0  0
  4  8  1  0  0  0  0
  5  9  1  0  0  0  0
  5 10  2  0  0  0  0
 10  6  1  0  0  0  0
  6 11  1  0  0  0  0
 10 12  1  0  0  0  0
M  END
>  <Name>
2',3',4'-Trichloroacetophenone

>  <IGC50>
4.34

>  <CAS>
13608-87-2

>  <SET>
ws

>  <Species>
Tetrahymena pyriformis

>  <Test duration>
48h

$$$$

  Mrv1808 07152009202D          

  9  9  0  0  0  0            999 V2000
    1.4640    2.5097    0.0000 Br  0  0  0  0  0  0  0  0  0  0  0  0
    1.4640    1.6731    0.0000 C   0  0  0  0  0  0  0  0  0  0  0  0
    0.7529    1.2548    0.0000 C   0  0  0  0  0  0  0  0  0  0  0  0
    2.1750    1.2548    0.0000 C   0  0  0  0  0  0  0  0  0  0  0  0
    0.0000    1.6731    0.0000 Cl  0  0  0  0  0  0  0  0  0  0  0  0
    0.7529    0.4183    0.0000 C   0  0  0  0  0  0  0  0  0  0  0  0
    2.9279    1.6731    0.0000 Cl  0  0  0  0  0  0  0  0  0  0  0  0
    2.1750    0.4183    0.0000 C   0  0  0  0  0  0  0  0  0  0  0  0
    1.4640    0.0000    0.0000 C   0  0  0  0  0  0  0  0  0  0  0  0
  1  2  1  0  0  0  0
  3  2  2  0  0  0  0
  2  4  1  0  0  0  0
  3  5  1  0  0  0  0
  6  3  1  0  0  0  0
  4  7  1  0  0  0  0
  4  8  2  0  0  0  0
  9  6  2  0  0  0  0
  8  9  1  0  0  0  0
M  END
>  <Name>
2-bromo-1,3-dichlorobenzene

>  <IGC50>
4.34

>  <CAS>
19393-92-1

>  <SET>
ws

>  <Species>
Tetrahymena pyriformis

>  <Test duration>
48h

$$$$

  Mrv1808 07152009202D          

 11 11  0  0  0  0            999 V2000
    2.8875    1.6500    0.0000 C   0  0  0  0  0  0  0  0  0  0  0  0
    2.1450    1.2375    0.0000 C   0  0  0  0  0  0  0  0  0  0  0  0
    1.4438    1.6500    0.0000 C   0  0  0  0  0  0  0  0  0  0  0  0
    2.1450    0.4125    0.0000 C   0  0  0  0  0  0  0  0  0  0  0  0
    1.4438    2.4751    0.0000 C   0  0  0  0  0  0  0  0  0  0  0  0
    0.7425    1.2375    0.0000 C   0  0  0  0  0  0  0  0  0  0  0  0
    2.8875    0.0000    0.0000 O   0  0  0  0  0  0  0  0  0  0  0  0
    1.4438    0.0000    0.0000 C   0  0  0  0  0  0  0  0  0  0  0  0
    0.0000    1.6500    0.0000 O   0  0  0  0  0  0  0  0  0  0  0  0
    0.7425    0.4125    0.0000 C   0  0  0  0  0  0  0  0  0  0  0  0
    0.0000    0.0000    0.0000 C   0  0  0  0  0  0  0  0  0  0  0  0
  1  2  1  0  0  0  0
  3  2  2  0  0  0  0
  2  4  1  0  0  0  0
  3  5  1  0  0  0  0
  6  3  1  0  0  0  0
  4  7  1  0  0  0  0
  4  8  2  0  0  0  0
  6  9  1  0  0  0  0
 10  6  2  0  0  0  0
  8 10  1  0  0  0  0
 10 11  1  0  0  0  0
M  END
>  <Name>
1,4-Benzenediol, 2,3,5-trimethyl-

>  <IGC50>
4.34

>  <CAS>
700-13-0

>  <SET>
ws

>  <Species>
Tetrahymena pyriformis

>  <Test duration>
48h

$$$$

  Mrv1808 07152009202D          

 14 14  0  0  0  0            999 V2000
    2.4795    0.0000    0.0000 O   0  0  0  0  0  0  0  0  0  0  0  0
    2.8948   -0.7191    0.0000 C   0  0  0  0  0  0  0  0  0  0  0  0
    3.7193   -0.7191    0.0000 C   0  0  0  0  0  0  0  0  0  0  0  0
    2.4795   -1.4319    0.0000 O   0  0  0  0  0  0  0  0  0  0  0  0
    4.1345    0.0000    0.0000 C   0  0  0  0  0  0  0  0  0  0  0  0
    4.1345   -1.4319    0.0000 C   0  0  0  0  0  0  0  0  0  0  0  0
    1.6551   -1.4319    0.0000 C   0  0  0  0  0  0  0  0  0  0  0  0
    4.9590    0.0000    0.0000 C   0  0  0  0  0  0  0  0  0  0  0  0
    4.9590   -1.4319    0.0000 C   0  0  0  0  0  0  0  0  0  0  0  0
    1.2398   -0.7191    0.0000 C   0  0  0  0  0  0  0  0  0  0  0  0
    5.3743   -0.7191    0.0000 C   0  0  0  0  0  0  0  0  0  0  0  0
    0.4153   -0.7191    0.0000 C   0  0  0  0  0  0  0  0  0  0  0  0
    6.1987   -0.7191    0.0000 O   0  0  0  0  0  0  0  0  0  0  0  0
    0.0000    0.0000    0.0000 C   0  0  0  0  0  0  0  0  0  0  0  0
  1  2  2  0  0  0  0
  2  3  1  0  0  0  0
  2  4  1  0  0  0  0
  3  5  2  0  0  0  0
  3  6  1  0  0  0  0
  4  7  1  0  0  0  0
  5  8  1  0  0  0  0
  9  6  2  0  0  0  0
  7 10  1  0  0  0  0
  8 11  2  0  0  0  0
 11  9  1  0  0  0  0
 10 12  1  0  0  0  0
 11 13  1  0  0  0  0
 12 14  1  0  0  0  0
M  END
>  <Name>
Benzoic acid, 4-hydroxy-, butyl ester

>  <IGC50>
4.33

>  <CAS>
94-26-8

>  <SET>
ws

>  <Species>
Tetrahymena pyriformis

>  <Test duration>
48h

$$$$

  Mrv1808 07152009202D          

 12 12  0  0  0  0            999 V2000
    0.7110    1.2130    0.0000 C   0  0  0  0  0  0  0  0  0  0  0  0
    1.4221    1.6313    0.0000 C   0  0  0  0  0  0  0  0  0  0  0  0
    0.7110    0.4183    0.0000 C   0  0  0  0  0  0  0  0  0  0  0  0
    2.1750    1.2130    0.0000 C   0  0  0  0  0  0  0  0  0  0  0  0
    0.0000    0.0000    0.0000 Br  0  0  0  0  0  0  0  0  0  0  0  0
    1.4221    0.0000    0.0000 C   0  0  0  0  0  0  0  0  0  0  0  0
    2.1750    0.4183    0.0000 C   0  0  0  0  0  0  0  0  0  0  0  0
    2.8443    1.6731    0.0000 C   0  0  0  0  0  0  0  0  0  0  0  0
    3.5553    1.2548    0.0000 O   0  0  0  0  0  0  0  0  0  0  0  0
    2.8443    2.5097    0.0000 O   0  0  0  0  0  0  0  0  0  0  0  0
    4.3082    1.6731    0.0000 C   0  0  0  0  0  0  0  0  0  0  0  0
    5.0193    1.2548    0.0000 C   0  0  0  0  0  0  0  0  0  0  0  0
  1  2  2  0  0  0  0
  3  1  1  0  0  0  0
  2  4  1  0  0  0  0
  3  5  1  0  0  0  0
  6  3  2  0  0  0  0
  4  7  2  0  0  0  0
  4  8  1  0  0  0  0
  7  6  1  0  0  0  0
  8  9  1  0  0  0  0
  8 10  2  0  0  0  0
  9 11  1  0  0  0  0
 11 12  1  0  0  0  0
M  END
>  <Name>
Benzoic acid, p-bromo-, ethyl ester (8CI)

>  <IGC50>
4.33

>  <CAS>
5798-75-4

>  <SET>
ws

>  <Species>
Tetrahymena pyriformis

>  <Test duration>
48h

$$$$

  Mrv1808 07152009202D          

 11 10  0  0  0  0            999 V2000
    0.0000    0.0000    0.0000 O   0  0  0  0  0  0  0  0  0  0  0  0
    0.7720    0.3860    0.0000 C   0  0  0  0  0  0  0  0  0  0  0  0
    1.5011    0.0000    0.0000 C   0  0  0  0  0  0  0  0  0  0  0  0
    0.7720    1.2438    0.0000 O   0  0  0  0  0  0  0  0  0  0  0  0
    2.2302    0.3860    0.0000 C   0  0  0  0  0  0  0  0  0  0  0  0
    2.9594    0.0000    0.0000 C   0  0  0  0  0  0  0  0  0  0  0  0
    3.6456    0.3860    0.0000 C   0  0  0  0  0  0  0  0  0  0  0  0
    4.3747    0.0000    0.0000 C   0  0  0  0  0  0  0  0  0  0  0  0
    5.1467    0.3860    0.0000 C   0  0  0  0  0  0  0  0  0  0  0  0
    5.8759    0.0000    0.0000 C   0  0  0  0  0  0  0  0  0  0  0  0
    6.6050    0.3860    0.0000 Br  0  0  0  0  0  0  0  0  0  0  0  0
  1  2  1  0  0  0  0
  2  3  1  0  0  0  0
  2  4  2  0  0  0  0
  3  5  1  0  0  0  0
  5  6  1  0  0  0  0
  6  7  1  0  0  0  0
  7  8  1  0  0  0  0
  9  8  1  0  0  0  0
 10  9  1  0  0  0  0
 11 10  1  0  0  0  0
M  END
>  <Name>
Caprylicacid, h-bromo- (4CI)

>  <IGC50>
4.323

>  <CAS>
17696-11-6

>  <SET>
ws

>  <Species>
Tetrahymena pyriformis

>  <Test duration>
48h

$$$$

  Mrv1808 07152009203D          

 12 11  0  0  0  0            999 V2000
    6.5583    2.0959    1.0054 C   0  0  0  0  0  0  0  0  0  0  0  0
    5.1513    2.1786    1.2948 C   0  0  0  0  0  0  0  0  0  0  0  0
    7.3887    2.8163    2.0617 C   0  0  0  0  0  0  0  0  0  0  0  0
    3.9844    2.2442    1.5319 C   0  0  0  0  0  0  0  0  0  0  0  0
    8.8720    2.7104    1.7460 C   0  0  0  0  0  0  0  0  0  0  0  0
    2.5820    2.3447    1.8210 C   0  0  0  0  0  0  0  0  0  0  0  0
    9.7099    3.4173    2.7989 C   0  0  0  0  0  0  0  0  0  0  0  0
    1.9652    1.1202    1.8206 O   0  0  0  0  0  0  0  0  0  0  0  0
    1.9428    3.3519    2.0507 O   0  0  0  0  0  0  0  0  0  0  0  0
   11.1922    3.3385    2.4707 C   0  0  0  0  0  0  0  0  0  0  0  0
    0.5805    1.0707    2.0900 C   0  0  0  0  0  0  0  0  0  0  0  0
   12.0291    4.0315    3.5221 C   0  0  0  0  0  0  0  0  0  0  0  0
  1  2  1  0  0  0  0
  1  3  1  0  0  0  0
  2  4  3  0  0  0  0
  3  5  1  0  0  0  0
  4  6  1  0  0  0  0
  5  7  1  0  0  0  0
  6  8  1  0  0  0  0
  6  9  2  0  0  0  0
  7 10  1  0  0  0  0
  8 11  1  0  0  0  0
 10 12  1  0  0  0  0
M  END
>  <Name>
2-Nonynoic acid, methyl ester

>  <IGC50>
4.32

>  <CAS>
111-80-8

>  <SET>
ws

>  <Species>
Tetrahymena pyriformis

>  <Test duration>
48h

$$$$

  Mrv1808 07152009203D          

  7  6  0  0  0  0            999 V2000
   -2.4237    0.9777    0.0292 O   0  0  0  0  0  0  0  0  0  0  0  0
   -1.6736    0.0110    0.0041 C   0  0  0  0  0  0  0  0  0  0  0  0
   -2.1444   -1.4128   -0.0182 C   0  0  0  0  0  0  0  0  0  0  0  0
   -0.2441    0.2115   -0.0077 C   0  0  0  0  0  0  0  0  0  0  0  0
    0.9454    0.3767   -0.0174 C   0  0  0  0  0  0  0  0  0  0  0  0
    2.3991    0.5799   -0.0292 C   0  0  0  0  0  0  0  0  0  0  0  0
    3.1412   -0.7441    0.0392 C   0  0  0  0  0  0  0  0  0  0  0  0
  1  2  2  0  0  0  0
  2  3  1  0  0  0  0
  2  4  1  0  0  0  0
  5  4  3  0  0  0  0
  6  5  1  0  0  0  0
  6  7  1  0  0  0  0
M  END
>  <Name>
hex-3-yn-2-one

>  <IGC50>
4.32

>  <CAS>
1679-36-3

>  <SET>
ws

>  <Species>
Tetrahymena pyriformis

>  <Test duration>
48h

$$$$

  Mrv1808 07152009203D          

 14 16  0  0  0  0            999 V2000
   -4.4755   -0.6958    1.8763 N   0  0  0  0  0  0  0  0  0  0  0  0
   -3.9308    0.4299    2.3915 C   0  0  0  0  0  0  0  0  0  0  0  0
   -5.7151   -1.0699    2.2667 C   0  0  0  0  0  0  0  0  0  0  0  0
   -2.6394    0.8610    2.0146 C   0  0  0  0  0  0  0  0  0  0  0  0
   -4.6514    1.2044    3.3271 C   0  0  0  0  0  0  0  0  0  0  0  0
   -6.4807   -0.3704    3.1724 C   0  0  0  0  0  0  0  0  0  0  0  0
   -2.0860    2.0452    2.5671 C   0  0  0  0  0  0  0  0  0  0  0  0
   -1.8556    0.1429    1.0861 C   0  0  0  0  0  0  0  0  0  0  0  0
   -4.0973    2.3710    3.8666 C   0  0  0  0  0  0  0  0  0  0  0  0
   -5.9338    0.7846    3.7074 C   0  0  0  0  0  0  0  0  0  0  0  0
   -2.8260    2.7875    3.4898 C   0  0  0  0  0  0  0  0  0  0  0  0
   -0.8009    2.4665    2.1866 C   0  0  0  0  0  0  0  0  0  0  0  0
   -0.5795    0.5739    0.7172 C   0  0  0  0  0  0  0  0  0  0  0  0
   -0.0527    1.7350    1.2672 C   0  0  0  0  0  0  0  0  0  0  0  0
  1  2  1  0  0  0  0
  1  3  2  0  0  0  0
  4  2  1  0  0  0  0
  2  5  2  0  0  0  0
  6  3  1  0  0  0  0
  4  7  1  0  0  0  0
  4  8  2  0  0  0  0
  5  9  1  0  0  0  0
  5 10  1  0  0  0  0
 10  6  2  0  0  0  0
  7 11  1  0  0  0  0
  7 12  2  0  0  0  0
  8 13  1  0  0  0  0
 11  9  2  0  0  0  0
 12 14  1  0  0  0  0
 13 14  2  0  0  0  0
M  END
>  <Name>
Benzo(h)quinoline

>  <IGC50>
4.31

>  <CAS>
230-27-3

>  <SET>
ws

>  <Species>
Tetrahymena pyriformis

>  <Test duration>
48h

$$$$

  Mrv1808 07152009203D          

  9  9  0  0  0  0            999 V2000
   -2.4524    0.9240    0.0002 O   0  0  0  0  0  0  0  0  0  0  0  0
   -1.1360    0.5725    0.0000 C   0  0  0  0  0  0  0  0  0  0  0  0
   -0.7557   -0.7696   -0.0001 C   0  0  0  0  0  0  0  0  0  0  0  0
   -0.1637    1.5729    0.0000 C   0  0  0  0  0  0  0  0  0  0  0  0
    0.5968   -1.1112   -0.0002 C   0  0  0  0  0  0  0  0  0  0  0  0
   -1.7828   -1.8533    0.0000 C   0  0  0  0  0  0  0  0  0  0  0  0
    1.1886    1.2312   -0.0002 C   0  0  0  0  0  0  0  0  0  0  0  0
    1.5688   -0.1107   -0.0002 C   0  0  0  0  0  0  0  0  0  0  0  0
    2.9363   -0.4558    0.0004 N   0  0  0  0  0  0  0  0  0  0  0  0
  1  2  1  0  0  0  0
  3  2  2  0  0  0  0
  2  4  1  0  0  0  0
  3  5  1  0  0  0  0
  3  6  1  0  0  0  0
  4  7  2  0  0  0  0
  5  8  2  0  0  0  0
  8  7  1  0  0  0  0
  9  8  1  0  0  0  0
M  END
>  <Name>
4-amino-2-methylphenol

>  <IGC50>
4.31

>  <CAS>
2835-96-3

>  <SET>
ws

>  <Species>
Tetrahymena pyriformis

>  <Test duration>
48h

$$$$

  Mrv1808 07152009203D          

 14 15  0  0  0  0            999 V2000
    2.1594    5.1488    2.1011 O   0  0  0  0  0  0  0  0  0  0  0  0
    2.1154    3.8062    2.3711 C   0  0  0  0  0  0  0  0  0  0  0  0
    3.3174    3.0826    2.2299 C   0  0  0  0  0  0  0  0  0  0  0  0
    0.9304    3.1702    2.7646 C   0  0  0  0  0  0  0  0  0  0  0  0
    3.2899    1.7125    2.4846 C   0  0  0  0  0  0  0  0  0  0  0  0
    4.5681    3.7814    1.7966 C   0  0  0  0  0  0  0  0  0  0  0  0
    0.9406    1.8040    3.0151 C   0  0  0  0  0  0  0  0  0  0  0  0
    2.1157    1.0768    2.8742 C   0  0  0  0  0  0  0  0  0  0  0  0
    5.8208    2.9889    2.0006 C   0  0  0  0  0  0  0  0  0  0  0  0
    6.4914    3.0410    3.2241 C   0  0  0  0  0  0  0  0  0  0  0  0
    6.3427    2.2132    0.9639 C   0  0  0  0  0  0  0  0  0  0  0  0
    7.6684    2.3241    3.4072 C   0  0  0  0  0  0  0  0  0  0  0  0
    7.5207    1.4986    1.1504 C   0  0  0  0  0  0  0  0  0  0  0  0
    8.1850    1.5534    2.3709 C   0  0  0  0  0  0  0  0  0  0  0  0
  1  2  1  0  0  0  0
  2  3  2  0  0  0  0
  4  2  1  0  0  0  0
  3  5  1  0  0  0  0
  3  6  1  0  0  0  0
  7  4  2  0  0  0  0
  5  8  2  0  0  0  0
  6  9  1  0  0  0  0
  8  7  1  0  0  0  0
  9 10  2  0  0  0  0
 11  9  1  0  0  0  0
 10 12  1  0  0  0  0
 13 11  2  0  0  0  0
 12 14  2  0  0  0  0
 14 13  1  0  0  0  0
M  END
>  <Name>
2-benzylphenol

>  <IGC50>
4.31

>  <CAS>
28994-41-4

>  <SET>
ws

>  <Species>
Tetrahymena pyriformis

>  <Test duration>
48h

$$$$

  Mrv1808 07152009203D          

 12 13  0  0  0  0            999 V2000
    4.6371    3.9159    0.9133 C   0  0  0  0  0  0  0  0  0  0  0  0
    4.6535    5.4047    0.9133 C   0  0  0  0  0  0  0  0  0  0  0  0
    3.3881    3.2138    0.9133 C   0  0  0  0  0  0  0  0  0  0  0  0
    5.8181    3.2004    0.9117 C   0  0  0  0  0  0  0  0  0  0  0  0
    3.3821    1.8033    0.9114 C   0  0  0  0  0  0  0  0  0  0  0  0
    2.1349    3.8887    0.9154 C   0  0  0  0  0  0  0  0  0  0  0  0
    7.1638    3.8356    0.9119 C   0  0  0  0  0  0  0  0  0  0  0  0
    5.7951    1.7795    0.9096 C   0  0  0  0  0  0  0  0  0  0  0  0
    4.6148    1.0957    0.9091 C   0  0  0  0  0  0  0  0  0  0  0  0
    2.1475    1.0984    0.9111 C   0  0  0  0  0  0  0  0  0  0  0  0
    0.9576    3.1934    0.9151 C   0  0  0  0  0  0  0  0  0  0  0  0
    0.9609    1.7786    0.9127 C   0  0  0  0  0  0  0  0  0  0  0  0
  1  2  1  0  0  0  0
  3  1  2  0  0  0  0
  1  4  1  0  0  0  0
  3  5  1  0  0  0  0
  6  3  1  0  0  0  0
  4  7  1  0  0  0  0
  4  8  2  0  0  0  0
  9  5  2  0  0  0  0
  5 10  1  0  0  0  0
 11  6  2  0  0  0  0
  8  9  1  0  0  0  0
 10 12  2  0  0  0  0
 12 11  1  0  0  0  0
M  END
>  <Name>
1,2-dimethylnaphthalene

>  <IGC50>
4.31

>  <CAS>
573-98-8

>  <SET>
ws

>  <Species>
Tetrahymena pyriformis

>  <Test duration>
48h

$$$$

  Mrv1808 07152009202D          

 15 16  0  0  0  0            999 V2000
    0.7135   -1.2374    0.0000 O   0  0  0  0  0  0  0  0  0  0  0  0
    1.4307   -0.8249    0.0000 N   0  3  0  0  0  0  0  0  0  0  0  0
    1.4307    0.0000    0.0000 O   0  5  0  0  0  0  0  0  0  0  0  0
    2.1442   -1.2374    0.0000 C   0  0  0  0  0  0  0  0  0  0  0  0
    2.8614   -0.8249    0.0000 C   0  0  0  0  0  0  0  0  0  0  0  0
    2.1442   -2.0662    0.0000 C   0  0  0  0  0  0  0  0  0  0  0  0
    3.5748   -1.2374    0.0000 C   0  0  0  0  0  0  0  0  0  0  0  0
    2.8614   -2.4786    0.0000 C   0  0  0  0  0  0  0  0  0  0  0  0
    1.4307   -2.4786    0.0000 C   0  0  0  0  0  0  0  0  0  0  0  0
    3.5748   -2.0662    0.0000 C   0  0  0  0  0  0  0  0  0  0  0  0
    1.4307   -3.3036    0.0000 C   0  0  0  0  0  0  0  0  0  0  0  0
    0.7135   -2.0662    0.0000 C   0  0  0  0  0  0  0  0  0  0  0  0
    0.7135   -3.7161    0.0000 C   0  0  0  0  0  0  0  0  0  0  0  0
    0.0000   -2.4786    0.0000 C   0  0  0  0  0  0  0  0  0  0  0  0
    0.0000   -3.3036    0.0000 C   0  0  0  0  0  0  0  0  0  0  0  0
  1  2  2  0  0  0  0
  2  3  1  0  0  0  0
  2  4  1  0  0  0  0
  4  5  2  0  0  0  0
  4  6  1  0  0  0  0
  5  7  1  0  0  0  0
  8  6  2  0  0  0  0
  6  9  1  0  0  0  0
  7 10  2  0  0  0  0
 10  8  1  0  0  0  0
  9 11  2  0  0  0  0
  9 12  1  0  0  0  0
 11 13  1  0  0  0  0
 14 12  2  0  0  0  0
 13 15  2  0  0  0  0
 15 14  1  0  0  0  0
M  CHG  2   2   1   3  -1
M  END
>  <Name>
1,1'-Biphenyl, 2-nitro- (9CI)

>  <IGC50>
4.3

>  <CAS>
86-00-0

>  <SET>
ws

>  <Species>
Tetrahymena pyriformis

>  <Test duration>
48h

$$$$

  Mrv1808 07152009202D          

 12 12  0  0  0  0            999 V2000
    0.0000    0.0000    0.0000 O   0  5  0  0  0  0  0  0  0  0  0  0
    0.4129   -0.7142    0.0000 N   0  3  0  0  0  0  0  0  0  0  0  0
    0.0000   -1.4285    0.0000 O   0  0  0  0  0  0  0  0  0  0  0  0
    1.2386   -0.7142    0.0000 C   0  0  0  0  0  0  0  0  0  0  0  0
    1.6514    0.0000    0.0000 C   0  0  0  0  0  0  0  0  0  0  0  0
    1.6514   -1.4285    0.0000 C   0  0  0  0  0  0  0  0  0  0  0  0
    2.4771    0.0000    0.0000 C   0  0  0  0  0  0  0  0  0  0  0  0
    2.4771   -1.4285    0.0000 C   0  0  0  0  0  0  0  0  0  0  0  0
    2.8900   -0.7142    0.0000 C   0  0  0  0  0  0  0  0  0  0  0  0
    3.7156   -0.7142    0.0000 N   0  3  0  0  0  0  0  0  0  0  0  0
    4.1284    0.0000    0.0000 O   0  5  0  0  0  0  0  0  0  0  0  0
    4.1284   -1.4285    0.0000 O   0  0  0  0  0  0  0  0  0  0  0  0
  1  2  1  0  0  0  0
  2  3  2  0  0  0  0
  2  4  1  0  0  0  0
  4  5  2  0  0  0  0
  4  6  1  0  0  0  0
  5  7  1  0  0  0  0
  8  6  2  0  0  0  0
  7  9  2  0  0  0  0
  9  8  1  0  0  0  0
  9 10  1  0  0  0  0
 10 11  1  0  0  0  0
 10 12  2  0  0  0  0
M  CHG  4   1  -1   2   1  10   1  11  -1
M  END
>  <Name>
Benzene, 1,4-dinitro-

>  <IGC50>
4.3

>  <CAS>
100-25-4

>  <SET>
ws

>  <Species>
Tetrahymena pyriformis

>  <Test duration>
48h

$$$$

  Mrv1808 07152009202D          

 12 12  0  0  0  0            999 V2000
    1.1264   -2.3673    0.0000 C   0  0  0  0  0  0  0  0  0  0  0  0
    0.7152   -1.6521    0.0000 C   0  0  0  0  0  0  0  0  0  0  0  0
    1.4304   -1.2409    0.0000 C   0  0  0  0  0  0  0  0  0  0  0  0
    0.0000   -2.0634    0.0000 C   0  0  0  0  0  0  0  0  0  0  0  0
    0.3039   -0.9369    0.0000 C   0  0  0  0  0  0  0  0  0  0  0  0
    1.4304   -0.4148    0.0000 C   0  0  0  0  0  0  0  0  0  0  0  0
    2.1456   -1.6521    0.0000 C   0  0  0  0  0  0  0  0  0  0  0  0
    2.1456    0.0000    0.0000 C   0  0  0  0  0  0  0  0  0  0  0  0
    0.7152    0.0000    0.0000 O   0  0  0  0  0  0  0  0  0  0  0  0
    2.8608   -1.2409    0.0000 C   0  0  0  0  0  0  0  0  0  0  0  0
    2.8608   -0.4148    0.0000 C   0  0  0  0  0  0  0  0  0  0  0  0
    3.5760   -1.6521    0.0000 C   0  0  0  0  0  0  0  0  0  0  0  0
  1  2  1  0  0  0  0
  2  3  1  0  0  0  0
  2  4  1  0  0  0  0
  2  5  1  0  0  0  0
  3  6  2  0  0  0  0
  3  7  1  0  0  0  0
  6  8  1  0  0  0  0
  6  9  1  0  0  0  0
 10  7  2  0  0  0  0
  8 11  2  0  0  0  0
 11 10  1  0  0  0  0
 10 12  1  0  0  0  0
M  END
>  <Name>
Phenol, 2-(1,1-dimethylethyl)-4-methyl-

>  <IGC50>
4.3

>  <CAS>
2409-55-4

>  <SET>
ws

>  <Species>
Tetrahymena pyriformis

>  <Test duration>
48h

$$$$

  Mrv1808 07152009202D          

 10 10  0  0  0  0            999 V2000
    2.4748    2.8460    0.0000 Cl  0  0  0  0  0  0  0  0  0  0  0  0
    2.0624    2.1448    0.0000 C   0  0  0  0  0  0  0  0  0  0  0  0
    2.4748    1.4436    0.0000 C   0  0  0  0  0  0  0  0  0  0  0  0
    1.2374    2.1448    0.0000 C   0  0  0  0  0  0  0  0  0  0  0  0
    3.2998    1.4436    0.0000 Cl  0  0  0  0  0  0  0  0  0  0  0  0
    2.0624    0.7012    0.0000 C   0  0  0  0  0  0  0  0  0  0  0  0
    0.8249    1.4436    0.0000 C   0  0  0  0  0  0  0  0  0  0  0  0
    1.2374    0.7012    0.0000 C   0  0  0  0  0  0  0  0  0  0  0  0
    0.0000    1.4436    0.0000 N   0  0  0  0  0  0  0  0  0  0  0  0
    0.8249    0.0000    0.0000 Cl  0  0  0  0  0  0  0  0  0  0  0  0
  1  2  1  0  0  0  0
  3  2  2  0  0  0  0
  2  4  1  0  0  0  0
  5  3  1  0  0  0  0
  6  3  1  0  0  0  0
  4  7  2  0  0  0  0
  8  6  2  0  0  0  0
  7  8  1  0  0  0  0
  9  7  1  0  0  0  0
 10  8  1  0  0  0  0
M  END
>  <Name>
Aniline, 2,4,5-trichloro- (8CI)

>  <IGC50>
4.3

>  <CAS>
636-30-6

>  <SET>
ws

>  <Species>
Tetrahymena pyriformis

>  <Test duration>
48h

$$$$

  Mrv1808 07152009202D          

 11 11  0  0  0  0            999 V2000
    0.7162   -0.8365    0.0000 C   0  0  0  0  0  0  0  0  0  0  0  0
    0.7162    0.0000    0.0000 O   0  0  0  0  0  0  0  0  0  0  0  0
    1.4323   -1.2433    0.0000 C   0  0  0  0  0  0  0  0  0  0  0  0
    0.0000   -1.2433    0.0000 C   0  0  0  0  0  0  0  0  0  0  0  0
    1.4323   -2.0683    0.0000 C   0  0  0  0  0  0  0  0  0  0  0  0
    2.1485   -0.8365    0.0000 C   0  0  0  0  0  0  0  0  0  0  0  0
    0.0000   -2.0683    0.0000 C   0  0  0  0  0  0  0  0  0  0  0  0
    0.7162   -2.4865    0.0000 C   0  0  0  0  0  0  0  0  0  0  0  0
    1.9509   -0.0602    0.0000 C   0  0  0  0  0  0  0  0  0  0  0  0
    2.7444   -1.4810    0.0000 C   0  0  0  0  0  0  0  0  0  0  0  0
    2.8647   -0.4182    0.0000 C   0  0  0  0  0  0  0  0  0  0  0  0
  1  2  1  0  0  0  0
  1  3  2  0  0  0  0
  1  4  1  0  0  0  0
  3  5  1  0  0  0  0
  3  6  1  0  0  0  0
  4  7  2  0  0  0  0
  5  8  2  0  0  0  0
  6  9  1  0  0  0  0
  6 10  1  0  0  0  0
  6 11  1  0  0  0  0
  7  8  1  0  0  0  0
M  END
>  <Name>
Phenol, 2-(1,1-dimethylethyl)-

>  <IGC50>
4.29

>  <CAS>
88-18-6

>  <SET>
ws

>  <Species>
Tetrahymena pyriformis

>  <Test duration>
48h

$$$$

  Mrv1808 07152009203D          

 12 13  0  0  0  0            999 V2000
   -4.0978    0.5275   -0.0702 O   0  0  0  0  0  0  0  0  0  0  0  0
   -2.7705    0.2292   -0.0325 C   0  0  0  0  0  0  0  0  0  0  0  0
   -2.3575   -1.0968    0.0969 C   0  0  0  0  0  0  0  0  0  0  0  0
   -1.8231    1.2490   -0.1237 C   0  0  0  0  0  0  0  0  0  0  0  0
   -0.9972   -1.4032    0.1353 C   0  0  0  0  0  0  0  0  0  0  0  0
   -0.4628    0.9425   -0.0854 C   0  0  0  0  0  0  0  0  0  0  0  0
   -0.0504   -0.3834    0.0441 C   0  0  0  0  0  0  0  0  0  0  0  0
    1.4245   -0.7156    0.0854 C   0  0  1  0  0  0  0  0  0  0  0  0
    2.1625   -0.2819   -1.1937 C   0  0  0  0  0  0  0  0  0  0  0  0
    2.1949   -0.0640    1.2527 C   0  0  0  0  0  0  0  0  0  0  0  0
    3.5383    0.1570   -0.7159 C   0  0  0  0  0  0  0  0  0  0  0  0
    3.2390    0.8397    0.6070 C   0  0  0  0  0  0  0  0  0  0  0  0
  1  2  1  0  0  0  0
  3  2  2  0  0  0  0
  4  2  1  0  0  0  0
  5  3  1  0  0  0  0
  6  4  2  0  0  0  0
  7  5  2  0  0  0  0
  7  6  1  0  0  0  0
  8  7  1  0  0  0  0
  8  9  1  0  0  0  0
  8 10  1  0  0  0  0
  9 11  1  0  0  0  0
 10 12  1  0  0  0  0
 11 12  1  0  0  0  0
M  END
>  <Name>
4-cyclopentylphenol

>  <IGC50>
4.29

>  <CAS>
1518-83-8

>  <SET>
ws

>  <Species>
Tetrahymena pyriformis

>  <Test duration>
48h

$$$$

  Mrv1808 07152009202D          

 11 10  0  0  0  0            999 V2000
    0.0000   -0.4139    0.0000 C   0  0  0  0  0  0  0  0  0  0  0  0
    0.7136    0.0000    0.0000 C   0  0  0  0  0  0  0  0  0  0  0  0
    1.4273   -0.4139    0.0000 C   0  0  0  0  0  0  0  0  0  0  0  0
    2.1409    0.0000    0.0000 C   0  0  0  0  0  0  0  0  0  0  0  0
    2.8546   -0.4139    0.0000 C   0  0  0  0  0  0  0  0  0  0  0  0
    3.5682    0.0000    0.0000 C   0  0  0  0  0  0  0  0  0  0  0  0
    4.2818   -0.4139    0.0000 C   0  0  0  0  0  0  0  0  0  0  0  0
    4.9955    0.0000    0.0000 C   0  0  0  0  0  0  0  0  0  0  0  0
    5.7091   -0.4139    0.0000 C   0  0  0  0  0  0  0  0  0  0  0  0
    6.4228    0.0000    0.0000 C   0  0  0  0  0  0  0  0  0  0  0  0
    7.1364   -0.4139    0.0000 O   0  0  0  0  0  0  0  0  0  0  0  0
  1  2  1  0  0  0  0
  2  3  1  0  0  0  0
  3  4  1  0  0  0  0
  4  5  1  0  0  0  0
  5  6  1  0  0  0  0
  6  7  1  0  0  0  0
  7  8  1  0  0  0  0
  8  9  1  0  0  0  0
  9 10  1  0  0  0  0
 10 11  2  0  0  0  0
M  END
>  <Name>
1-Decanal

>  <IGC50>
4.282

>  <CAS>
112-31-2

>  <SET>
ws

>  <Species>
Tetrahymena pyriformis

>  <Test duration>
48h

$$$$

  Mrv1808 07152009202D          

  9  9  0  0  0  0            999 V2000
    0.0000   -1.4298    0.0000 Cl  0  0  0  0  0  0  0  0  0  0  0  0
    0.8264   -1.4298    0.0000 C   0  0  0  0  0  0  0  0  0  0  0  0
    1.2382   -0.7149    0.0000 C   0  0  0  0  0  0  0  0  0  0  0  0
    1.2382   -2.1446    0.0000 C   0  0  0  0  0  0  0  0  0  0  0  0
    0.8264    0.0000    0.0000 Cl  0  0  0  0  0  0  0  0  0  0  0  0
    2.0646   -0.7149    0.0000 C   0  0  0  0  0  0  0  0  0  0  0  0
    2.0646   -2.1446    0.0000 C   0  0  0  0  0  0  0  0  0  0  0  0
    0.8264   -2.8595    0.0000 O   0  0  0  0  0  0  0  0  0  0  0  0
    2.4763   -1.4298    0.0000 C   0  0  0  0  0  0  0  0  0  0  0  0
  1  2  1  0  0  0  0
  2  3  2  0  0  0  0
  2  4  1  0  0  0  0
  3  5  1  0  0  0  0
  3  6  1  0  0  0  0
  7  4  2  0  0  0  0
  4  8  1  0  0  0  0
  6  9  2  0  0  0  0
  9  7  1  0  0  0  0
M  END
>  <Name>
Phenol, 2,3-dichloro-

>  <IGC50>
4.28

>  <CAS>
576-24-9

>  <SET>
ws

>  <Species>
Tetrahymena pyriformis

>  <Test duration>
48h

$$$$

  Mrv1808 07152009202D          

 11 11  0  0  0  0            999 V2000
    0.4183    0.8366    0.0000 C   0  0  0  0  0  0  0  0  0  0  0  0
    1.2967    0.8366    0.0000 S   0  0  0  0  0  0  0  0  0  0  0  0
    0.0000    0.1255    0.0000 C   0  0  0  0  0  0  0  0  0  0  0  0
    1.2967    1.6731    0.0000 O   0  0  0  0  0  0  0  0  0  0  0  0
    1.2967    0.0000    0.0000 O   0  0  0  0  0  0  0  0  0  0  0  0
    2.1333    0.8366    0.0000 C   0  0  0  0  0  0  0  0  0  0  0  0
    2.5515    1.5476    0.0000 C   0  0  0  0  0  0  0  0  0  0  0  0
    2.5515    0.1255    0.0000 C   0  0  0  0  0  0  0  0  0  0  0  0
    3.3881    1.5476    0.0000 C   0  0  0  0  0  0  0  0  0  0  0  0
    3.3881    0.1255    0.0000 C   0  0  0  0  0  0  0  0  0  0  0  0
    3.8064    0.8366    0.0000 C   0  0  0  0  0  0  0  0  0  0  0  0
  1  2  1  0  0  0  0
  1  3  2  0  0  0  0
  2  4  2  0  0  0  0
  2  5  2  0  0  0  0
  2  6  1  0  0  0  0
  7  6  2  0  0  0  0
  6  8  1  0  0  0  0
  9  7  1  0  0  0  0
  8 10  2  0  0  0  0
 11  9  2  0  0  0  0
 10 11  1  0  0  0  0
M  END
>  <Name>
Phenyl vinyl sulphone

>  <IGC50>
4.28

>  <CAS>
5535-48-8

>  <SET>
ws

>  <Species>
Tetrahymena pyriformis

>  <Test duration>
48h

$$$$

  Mrv1808 07152009202D          

 10 10  0  0  0  0            999 V2000
    2.0821    0.7649    0.0000 C   0  0  0  0  0  0  0  0  0  0  0  0
    1.2748    0.7649    0.0000 C   0  0  0  0  0  0  0  0  0  0  0  0
    2.5071    1.4447    0.0000 C   0  0  0  0  0  0  0  0  0  0  0  0
    0.8073    1.4447    0.0000 C   0  0  0  0  0  0  0  0  0  0  0  0
    0.8073    0.0000    0.0000 Cl  0  0  0  0  0  0  0  0  0  0  0  0
    2.0821    2.2096    0.0000 C   0  0  0  0  0  0  0  0  0  0  0  0
    3.3144    1.4447    0.0000 Br  0  0  0  0  0  0  0  0  0  0  0  0
    1.2748    2.2096    0.0000 C   0  0  0  0  0  0  0  0  0  0  0  0
    0.0000    1.4447    0.0000 O   0  0  0  0  0  0  0  0  0  0  0  0
    0.8073    2.9320    0.0000 C   0  0  0  0  0  0  0  0  0  0  0  0
  2  1  2  0  0  0  0
  1  3  1  0  0  0  0
  4  2  1  0  0  0  0
  2  5  1  0  0  0  0
  3  6  2  0  0  0  0
  3  7  1  0  0  0  0
  8  4  2  0  0  0  0
  4  9  1  0  0  0  0
  6  8  1  0  0  0  0
  8 10  1  0  0  0  0
M  END
>  <Name>
o-Cresol, 4-bromo-6-chloro-

>  <IGC50>
4.28

>  <CAS>
7530-27-0

>  <SET>
ws

>  <Species>
Tetrahymena pyriformis

>  <Test duration>
48h

$$$$

  Mrv1808 07152009202D          

  5  4  0  0  0  0            999 V2000
    0.0000    0.0000    0.0000 C   0  0  0  0  0  0  0  0  0  0  0  0
    0.8250    0.0000    0.0000 C   0  0  0  0  0  0  0  0  0  0  0  0
    1.6500    0.0000    0.0000 C   0  0  0  0  0  0  0  0  0  0  0  0
    2.4750    0.0000    0.0000 C   0  0  0  0  0  0  0  0  0  0  0  0
    2.8875    0.7150    0.0000 Br  0  0  0  0  0  0  0  0  0  0  0  0
  1  2  1  0  0  0  0
  2  3  3  0  0  0  0
  3  4  1  0  0  0  0
  4  5  1  0  0  0  0
M  END
>  <Name>
2-Butyne,bromo- (6CI,7CI)

>  <IGC50>
4.276

>  <CAS>
3355-28-0

>  <SET>
ws

>  <Species>
Tetrahymena pyriformis

>  <Test duration>
48h

$$$$

  Mrv1808 07152009203D          

 10 10  0  0  0  0            999 V2000
    2.9657    0.0000   -0.0012 Br  0  0  0  0  0  0  0  0  0  0  0  0
    1.0614   -0.0004    0.0000 C   0  0  0  0  0  0  0  0  0  0  0  0
    0.3642    1.2078   -0.0003 C   0  0  0  0  0  0  0  0  0  0  0  0
    0.3637   -1.2083    0.0004 C   0  0  0  0  0  0  0  0  0  0  0  0
   -1.0307    1.2082   -0.0001 C   0  0  0  0  0  0  0  0  0  0  0  0
    1.0629    2.5297    0.0011 C   0  0  0  0  0  0  0  0  0  0  0  0
   -1.0312   -1.2078    0.0005 C   0  0  0  0  0  0  0  0  0  0  0  0
    1.0617   -2.5303    0.0004 C   0  0  0  0  0  0  0  0  0  0  0  0
   -1.7283    0.0004    0.0003 C   0  0  0  0  0  0  0  0  0  0  0  0
   -3.0894    0.0006   -0.0010 O   0  0  0  0  0  0  0  0  0  0  0  0
  1  2  1  0  0  0  0
  3  2  2  0  0  0  0
  4  2  1  0  0  0  0
  3  5  1  0  0  0  0
  3  6  1  0  0  0  0
  4  7  2  0  0  0  0
  4  8  1  0  0  0  0
  5  9  2  0  0  0  0
  7  9  1  0  0  0  0
 10  9  1  0  0  0  0
M  END
>  <Name>
4-bromo-3,5-dimethylphenol

>  <IGC50>
4.27

>  <CAS>
7463-51-6

>  <SET>
ws

>  <Species>
Tetrahymena pyriformis

>  <Test duration>
48h

$$$$

  Mrv1808 07152009202D          

  8  7  0  0  0  0            999 V2000
    0.0000   -0.7165    0.0000 C   0  0  0  0  0  0  0  0  0  0  0  0
    0.4091   -1.4329    0.0000 C   0  0  0  0  0  0  0  0  0  0  0  0
    0.4091    0.0000    0.0000 Cl  0  0  0  0  0  0  0  0  0  0  0  0
    1.2340   -1.4329    0.0000 C   0  0  0  0  0  0  0  0  0  0  0  0
    0.0000   -2.1516    0.0000 O   0  0  0  0  0  0  0  0  0  0  0  0
    2.0612   -1.4329    0.0000 C   0  0  0  0  0  0  0  0  0  0  0  0
    1.2340   -2.2601    0.0000 C   0  0  0  0  0  0  0  0  0  0  0  0
    1.2340   -0.6080    0.0000 C   0  0  0  0  0  0  0  0  0  0  0  0
  1  2  1  0  0  0  0
  1  3  1  0  0  0  0
  2  4  1  0  0  0  0
  2  5  2  0  0  0  0
  4  6  1  0  0  0  0
  4  7  1  0  0  0  0
  4  8  1  0  0  0  0
M  END
>  <Name>
2-Butanone, 1-chloro-3,3-dimethyl-

>  <IGC50>
4.268

>  <CAS>
13547-70-1

>  <SET>
ws

>  <Species>
Tetrahymena pyriformis

>  <Test duration>
48h

$$$$

  Mrv1808 07152009202D          

 15 16  0  0  0  0            999 V2000
    4.2893   -1.2410    0.0000 C   0  0  0  0  0  0  0  0  0  0  0  0
    5.0042   -1.6528    0.0000 C   0  0  0  0  0  0  0  0  0  0  0  0
    3.5744   -1.6528    0.0000 C   0  0  0  0  0  0  0  0  0  0  0  0
    4.2893   -0.4118    0.0000 C   0  0  0  0  0  0  0  0  0  0  0  0
    5.7191   -1.2410    0.0000 O   0  0  0  0  0  0  0  0  0  0  0  0
    2.8595   -1.2410    0.0000 C   0  0  0  0  0  0  0  0  0  0  0  0
    3.5744    0.0000    0.0000 C   0  0  0  0  0  0  0  0  0  0  0  0
    2.8595   -0.4118    0.0000 C   0  0  0  0  0  0  0  0  0  0  0  0
    2.1446    0.0000    0.0000 O   0  0  0  0  0  0  0  0  0  0  0  0
    1.4298   -0.4118    0.0000 C   0  0  0  0  0  0  0  0  0  0  0  0
    1.4298   -1.2410    0.0000 C   0  0  0  0  0  0  0  0  0  0  0  0
    0.7149    0.0000    0.0000 C   0  0  0  0  0  0  0  0  0  0  0  0
    0.7149   -1.6528    0.0000 C   0  0  0  0  0  0  0  0  0  0  0  0
    0.0000   -0.4118    0.0000 C   0  0  0  0  0  0  0  0  0  0  0  0
    0.0000   -1.2410    0.0000 C   0  0  0  0  0  0  0  0  0  0  0  0
  1  2  1  0  0  0  0
  1  3  2  0  0  0  0
  1  4  1  0  0  0  0
  2  5  2  0  0  0  0
  3  6  1  0  0  0  0
  7  4  2  0  0  0  0
  6  8  2  0  0  0  0
  8  7  1  0  0  0  0
  8  9  1  0  0  0  0
  9 10  1  0  0  0  0
 10 11  2  0  0  0  0
 10 12  1  0  0  0  0
 11 13  1  0  0  0  0
 14 12  2  0  0  0  0
 13 15  2  0  0  0  0
 15 14  1  0  0  0  0
M  END
>  <Name>
Benzaldehyde, 4-phenoxy- (9CI)

>  <IGC50>
4.26

>  <CAS>
67-36-7

>  <SET>
ws

>  <Species>
Tetrahymena pyriformis

>  <Test duration>
48h

$$$$

  Mrv1808 07152009202D          

 15 16  0  0  0  0            999 V2000
    4.3313    1.4437    0.0000 C   0  0  0  0  0  0  0  0  0  0  0  0
    5.1564    1.4437    0.0000 C   0  0  0  0  0  0  0  0  0  0  0  0
    3.9188    0.7425    0.0000 C   0  0  0  0  0  0  0  0  0  0  0  0
    5.5688    0.7425    0.0000 C   0  0  0  0  0  0  0  0  0  0  0  0
    4.3313    0.0000    0.0000 C   0  0  0  0  0  0  0  0  0  0  0  0
    3.2175    1.1550    0.0000 C   0  0  0  0  0  0  0  0  0  0  0  0
    5.1564    0.0000    0.0000 C   0  0  0  0  0  0  0  0  0  0  0  0
    3.2175    1.9800    0.0000 O   0  0  0  0  0  0  0  0  0  0  0  0
    2.4750    0.7425    0.0000 C   0  0  0  0  0  0  0  0  0  0  0  0
    2.0625    1.4437    0.0000 C   0  0  0  0  0  0  0  0  0  0  0  0
    2.0625    0.0000    0.0000 C   0  0  0  0  0  0  0  0  0  0  0  0
    1.2375    1.4437    0.0000 C   0  0  0  0  0  0  0  0  0  0  0  0
    1.2375    0.0000    0.0000 C   0  0  0  0  0  0  0  0  0  0  0  0
    0.8250    0.7425    0.0000 C   0  0  0  0  0  0  0  0  0  0  0  0
    0.0000    0.7425    0.0000 Br  0  0  0  0  0  0  0  0  0  0  0  0
  1  2  2  0  0  0  0
  3  1  1  0  0  0  0
  2  4  1  0  0  0  0
  5  3  2  0  0  0  0
  3  6  1  0  0  0  0
  4  7  2  0  0  0  0
  7  5  1  0  0  0  0
  8  6  2  0  0  0  0
  6  9  1  0  0  0  0
 10  9  2  0  0  0  0
  9 11  1  0  0  0  0
 12 10  1  0  0  0  0
 11 13  2  0  0  0  0
 14 12  2  0  0  0  0
 13 14  1  0  0  0  0
 15 14  1  0  0  0  0
M  END
>  <Name>
Methanone, (4-bromophenyl)phenyl- (9CI)

>  <IGC50>
4.26

>  <CAS>
90-90-4

>  <SET>
ws

>  <Species>
Tetrahymena pyriformis

>  <Test duration>
48h

$$$$

  Mrv1808 07152009202D          

  9  9  0  0  0  0            999 V2000
    1.4640    2.5097    0.0000 Cl  0  0  0  0  0  0  0  0  0  0  0  0
    1.4640    1.6731    0.0000 C   0  0  0  0  0  0  0  0  0  0  0  0
    0.7529    1.2548    0.0000 C   0  0  0  0  0  0  0  0  0  0  0  0
    2.1750    1.2548    0.0000 C   0  0  0  0  0  0  0  0  0  0  0  0
    0.0000    1.6731    0.0000 O   0  0  0  0  0  0  0  0  0  0  0  0
    0.7529    0.4183    0.0000 C   0  0  0  0  0  0  0  0  0  0  0  0
    2.1750    0.4183    0.0000 C   0  0  0  0  0  0  0  0  0  0  0  0
    1.4640    0.0000    0.0000 C   0  0  0  0  0  0  0  0  0  0  0  0
    2.9279    0.0000    0.0000 O   0  0  0  0  0  0  0  0  0  0  0  0
  1  2  1  0  0  0  0
  3  2  2  0  0  0  0
  2  4  1  0  0  0  0
  3  5  1  0  0  0  0
  6  3  1  0  0  0  0
  4  7  2  0  0  0  0
  8  6  2  0  0  0  0
  7  8  1  0  0  0  0
  7  9  1  0  0  0  0
M  END
>  <Name>
1,4-Benzenediol, 2-chloro-

>  <IGC50>
4.26

>  <CAS>
615-67-8

>  <SET>
ws

>  <Species>
Tetrahymena pyriformis

>  <Test duration>
48h

$$$$

  Mrv1808 07152009202D          

 10 10  0  0  0  0            999 V2000
    2.8566   -1.2377    0.0000 C   0  0  0  0  0  0  0  0  0  0  0  0
    2.1414   -1.6489    0.0000 C   0  0  0  0  0  0  0  0  0  0  0  0
    2.8566   -0.4112    0.0000 C   0  0  0  0  0  0  0  0  0  0  0  0
    3.5675   -1.6489    0.0000 C   0  0  0  0  0  0  0  0  0  0  0  0
    1.4261   -1.2377    0.0000 C   0  0  0  0  0  0  0  0  0  0  0  0
    3.5675    0.0000    0.0000 C   0  0  0  0  0  0  0  0  0  0  0  0
    4.2828   -1.2377    0.0000 C   0  0  0  0  0  0  0  0  0  0  0  0
    0.7152   -1.6489    0.0000 C   0  0  0  0  0  0  0  0  0  0  0  0
    4.2828   -0.4112    0.0000 C   0  0  0  0  0  0  0  0  0  0  0  0
    0.0000   -1.2377    0.0000 C   0  0  0  0  0  0  0  0  0  0  0  0
  1  2  1  0  0  0  0
  1  3  1  0  0  0  0
  1  4  2  0  0  0  0
  2  5  1  0  0  0  0
  3  6  2  0  0  0  0
  7  4  1  0  0  0  0
  5  8  1  0  0  0  0
  6  9  1  0  0  0  0
  9  7  2  0  0  0  0
  8 10  1  0  0  0  0
M  END
>  <Name>
Benzene, butyl-

>  <IGC50>
4.25

>  <CAS>
104-51-8

>  <SET>
ws

>  <Species>
Tetrahymena pyriformis

>  <Test duration>
48h

$$$$

  Mrv1808 07152009202D          

 12 12  0  0  0  0            999 V2000
    2.0626    0.0000    0.0000 O   0  5  0  0  0  0  0  0  0  0  0  0
    2.4751   -0.7128    0.0000 N   0  3  0  0  0  0  0  0  0  0  0  0
    3.3001   -0.7128    0.0000 O   0  0  0  0  0  0  0  0  0  0  0  0
    2.0626   -1.4323    0.0000 C   0  0  0  0  0  0  0  0  0  0  0  0
    1.2376   -1.4323    0.0000 C   0  0  0  0  0  0  0  0  0  0  0  0
    2.4751   -2.1418    0.0000 C   0  0  0  0  0  0  0  0  0  0  0  0
    0.8250   -2.1418    0.0000 C   0  0  0  0  0  0  0  0  0  0  0  0
    0.8250   -0.7128    0.0000 N   0  3  0  0  0  0  0  0  0  0  0  0
    2.0626   -2.8612    0.0000 C   0  0  0  0  0  0  0  0  0  0  0  0
    1.2376   -2.8612    0.0000 C   0  0  0  0  0  0  0  0  0  0  0  0
    0.0000   -0.7128    0.0000 O   0  0  0  0  0  0  0  0  0  0  0  0
    1.2376    0.0000    0.0000 O   0  5  0  0  0  0  0  0  0  0  0  0
  1  2  1  0  0  0  0
  2  3  2  0  0  0  0
  2  4  1  0  0  0  0
  5  4  2  0  0  0  0
  6  4  1  0  0  0  0
  7  5  1  0  0  0  0
  5  8  1  0  0  0  0
  9  6  2  0  0  0  0
  7 10  2  0  0  0  0
  8 11  2  0  0  0  0
  8 12  1  0  0  0  0
 10  9  1  0  0  0  0
M  CHG  4   1  -1   2   1   8   1  12  -1
M  END
>  <Name>
Benzene, 1,2-dinitro- (9CI)

>  <IGC50>
4.25

>  <CAS>
528-29-0

>  <SET>
ws

>  <Species>
Tetrahymena pyriformis

>  <Test duration>
48h

$$$$

  Mrv1808 07152009202D          

 13 14  0  0  0  0            999 V2000
    0.7110    1.6730    0.0000 C   0  0  0  0  0  0  0  0  0  0  0  0
    0.0000    1.2548    0.0000 C   0  0  0  0  0  0  0  0  0  0  0  0
    1.4221    1.2548    0.0000 C   0  0  0  0  0  0  0  0  0  0  0  0
    0.0000    0.4183    0.0000 C   0  0  0  0  0  0  0  0  0  0  0  0
    1.4221    0.4183    0.0000 C   0  0  0  0  0  0  0  0  0  0  0  0
    2.1749    1.6730    0.0000 C   0  0  0  0  0  0  0  0  0  0  0  0
    0.7110    0.0000    0.0000 C   0  0  0  0  0  0  0  0  0  0  0  0
    2.1749    0.0000    0.0000 C   0  0  0  0  0  0  0  0  0  0  0  0
    2.8860    1.2548    0.0000 C   0  0  0  0  0  0  0  0  0  0  0  0
    2.1749    2.5096    0.0000 O   0  0  0  0  0  0  0  0  0  0  0  0
    2.8860    0.4183    0.0000 C   0  0  0  0  0  0  0  0  0  0  0  0
    2.8860    2.9279    0.0000 C   0  0  0  0  0  0  0  0  0  0  0  0
    3.5970    2.5096    0.0000 C   0  0  0  0  0  0  0  0  0  0  0  0
  2  1  2  0  0  0  0
  1  3  1  0  0  0  0
  4  2  1  0  0  0  0
  5  3  2  0  0  0  0
  3  6  1  0  0  0  0
  7  4  2  0  0  0  0
  5  7  1  0  0  0  0
  8  5  1  0  0  0  0
  6  9  2  0  0  0  0
  6 10  1  0  0  0  0
 11  8  2  0  0  0  0
  9 11  1  0  0  0  0
 12 10  1  0  0  0  0
 13 12  1  0  0  0  0
M  END
>  <Name>
1-ethoxynaphthalene

>  <IGC50>
4.25

>  <CAS>
5328-01-8

>  <SET>
ws

>  <Species>
Tetrahymena pyriformis

>  <Test duration>
48h

$$$$

  Mrv1808 07152009202D          

 14 14  0  0  0  0            999 V2000
    1.2339    0.0000    0.0000 O   0  0  0  0  0  0  0  0  0  0  0  0
    0.8226   -0.7115    0.0000 N   0  3  0  0  0  0  0  0  0  0  0  0
    0.0000   -0.7115    0.0000 O   0  5  0  0  0  0  0  0  0  0  0  0
    1.2339   -1.4266    0.0000 C   0  0  0  0  0  0  0  0  0  0  0  0
    2.0602   -1.4266    0.0000 C   0  0  0  0  0  0  0  0  0  0  0  0
    0.8226   -2.1380    0.0000 C   0  0  0  0  0  0  0  0  0  0  0  0
    2.4715   -2.1380    0.0000 C   0  0  0  0  0  0  0  0  0  0  0  0
    1.2339   -2.8532    0.0000 C   0  0  0  0  0  0  0  0  0  0  0  0
    3.2941   -2.1380    0.0000 N   0  3  0  0  0  0  0  0  0  0  0  0
    2.0602   -2.8532    0.0000 C   0  0  0  0  0  0  0  0  0  0  0  0
    0.8226   -3.5646    0.0000 Br  0  0  0  0  0  0  0  0  0  0  0  0
    3.7054   -2.8532    0.0000 O   0  5  0  0  0  0  0  0  0  0  0  0
    3.7054   -1.4266    0.0000 O   0  0  0  0  0  0  0  0  0  0  0  0
    2.4715   -3.5646    0.0000 N   0  0  0  0  0  0  0  0  0  0  0  0
  1  2  2  0  0  0  0
  2  3  1  0  0  0  0
  2  4  1  0  0  0  0
  4  5  2  0  0  0  0
  4  6  1  0  0  0  0
  5  7  1  0  0  0  0
  8  6  2  0  0  0  0
  7  9  1  0  0  0  0
  7 10  2  0  0  0  0
 10  8  1  0  0  0  0
  8 11  1  0  0  0  0
  9 12  1  0  0  0  0
  9 13  2  0  0  0  0
 10 14  1  0  0  0  0
M  CHG  4   2   1   3  -1   9   1  12  -1
M  END
>  <Name>
Benzenamine, 2-bromo-4,6-dinitro-

>  <IGC50>
4.24

>  <CAS>
1817-73-8

>  <SET>
ws

>  <Species>
Tetrahymena pyriformis

>  <Test duration>
48h

$$$$

  Mrv1808 07152009203D          

 14 15  0  0  0  0            999 V2000
   -5.3150    0.0000   -0.0001 N   0  0  0  0  0  0  0  0  0  0  0  0
   -4.1530    0.0000   -0.0001 C   0  0  0  0  0  0  0  0  0  0  0  0
   -2.7242   -0.0001    0.0000 C   0  0  0  0  0  0  0  0  0  0  0  0
   -2.0267   -0.8269   -0.8807 C   0  0  0  0  0  0  0  0  0  0  0  0
   -2.0268    0.8268    0.8807 C   0  0  0  0  0  0  0  0  0  0  0  0
   -0.6318   -0.8269   -0.8805 C   0  0  0  0  0  0  0  0  0  0  0  0
   -0.6319    0.8269    0.8806 C   0  0  0  0  0  0  0  0  0  0  0  0
    0.0656    0.0000    0.0001 C   0  0  0  0  0  0  0  0  0  0  0  0
    1.5123    0.0001    0.0002 C   0  0  0  0  0  0  0  0  0  0  0  0
    2.2100   -0.8806    0.8268 C   0  0  0  0  0  0  0  0  0  0  0  0
    2.2098    0.8807   -0.8267 C   0  0  0  0  0  0  0  0  0  0  0  0
    3.6049   -0.8807    0.8268 C   0  0  0  0  0  0  0  0  0  0  0  0
    3.6047    0.8807   -0.8270 C   0  0  0  0  0  0  0  0  0  0  0  0
    4.3022   -0.0001   -0.0002 C   0  0  0  0  0  0  0  0  0  0  0  0
  1  2  3  0  0  0  0
  3  2  1  0  0  0  0
  4  3  2  0  0  0  0
  5  3  1  0  0  0  0
  6  4  1  0  0  0  0
  7  5  2  0  0  0  0
  8  6  2  0  0  0  0
  8  7  1  0  0  0  0
  8  9  1  0  0  0  0
  9 10  2  0  0  0  0
  9 11  1  0  0  0  0
 10 12  1  0  0  0  0
 11 13  2  0  0  0  0
 12 14  2  0  0  0  0
 13 14  1  0  0  0  0
M  END
>  <Name>
4-phenylbenzonitrile

>  <IGC50>
4.24

>  <CAS>
2920-38-9

>  <SET>
ws

>  <Species>
Tetrahymena pyriformis

>  <Test duration>
48h

$$$$

  Mrv1808 07152009203D          

 12 11  0  0  0  0            999 V2000
   -2.2644    0.5676    0.1483 O   0  0  0  0  0  0  0  0  0  0  0  0
   -3.5756    1.0986   -0.0696 C   0  0  0  0  0  0  0  0  0  0  0  0
   -2.1045   -0.7425   -0.1779 C   0  0  0  0  0  0  0  0  0  0  0  0
   -3.5916    2.5562    0.3387 C   0  0  0  0  0  0  0  0  0  0  0  0
   -2.9488   -1.5015   -0.6300 O   0  0  0  0  0  0  0  0  0  0  0  0
   -0.7607   -1.1949    0.0690 C   0  0  0  0  0  0  0  0  0  0  0  0
    0.3618   -1.5697    0.2733 C   0  0  0  0  0  0  0  0  0  0  0  0
    1.7354   -2.0267    0.5246 C   0  0  0  0  0  0  0  0  0  0  0  0
    2.7737   -1.1684   -0.2002 C   0  0  0  0  0  0  0  0  0  0  0  0
    2.7760    0.2895    0.2723 C   0  0  0  0  0  0  0  0  0  0  0  0
    3.8057    1.1187   -0.4960 C   0  0  0  0  0  0  0  0  0  0  0  0
    3.7931    2.5730   -0.0524 C   0  0  0  0  0  0  0  0  0  0  0  0
  1  2  1  0  0  0  0
  1  3  1  0  0  0  0
  2  4  1  0  0  0  0
  5  3  2  0  0  0  0
  6  3  1  0  0  0  0
  7  6  3  0  0  0  0
  8  7  1  0  0  0  0
  9  8  1  0  0  0  0
 10  9  1  0  0  0  0
 10 11  1  0  0  0  0
 11 12  1  0  0  0  0
M  END
>  <Name>
ethyl oct-2-ynoate

>  <IGC50>
4.24

>  <CAS>
10519-20-7

>  <SET>
ws

>  <Species>
Tetrahymena pyriformis

>  <Test duration>
48h

$$$$

  Mrv1808 07152009202D          

 14 14  0  0  0  0            999 V2000
    1.4289   -0.8250    0.0000 C   0  0  0  0  0  0  0  0  0  0  0  0
    0.7145   -0.4125    0.0000 C   0  0  0  0  0  0  0  0  0  0  0  0
    2.1434   -0.4125    0.0000 O   0  0  0  0  0  0  0  0  0  0  0  0
    0.7145    0.4125    0.0000 C   0  0  0  0  0  0  0  0  0  0  0  0
    0.0000   -0.8250    0.0000 C   0  0  0  0  0  0  0  0  0  0  0  0
    0.0000    0.8250    0.0000 C   0  0  0  0  0  0  0  0  0  0  0  0
    1.4289    0.8250    0.0000 F   0  0  0  0  0  0  0  0  0  0  0  0
   -0.7145   -0.4125    0.0000 C   0  0  0  0  0  0  0  0  0  0  0  0
   -0.7145    0.4125    0.0000 C   0  0  0  0  0  0  0  0  0  0  0  0
    0.0000    1.6500    0.0000 Cl  0  0  0  0  0  0  0  0  0  0  0  0
   -1.4289   -0.8250    0.0000 C   0  0  0  0  0  0  0  0  0  0  0  0
   -2.1434   -1.2375    0.0000 F   0  0  0  0  0  0  0  0  0  0  0  0
   -1.4289   -1.6500    0.0000 F   0  0  0  0  0  0  0  0  0  0  0  0
   -2.1434   -0.4125    0.0000 F   0  0  0  0  0  0  0  0  0  0  0  0
  1  2  1  0  0  0  0
  1  3  2  0  0  0  0
  2  4  1  0  0  0  0
  2  5  2  0  0  0  0
  4  6  2  0  0  0  0
  4  7  1  0  0  0  0
  8  5  1  0  0  0  0
  6  9  1  0  0  0  0
  6 10  1  0  0  0  0
  9  8  2  0  0  0  0
  8 11  1  0  0  0  0
 11 12  1  0  0  0  0
 11 13  1  0  0  0  0
 11 14  1  0  0  0  0
M  END
>  <Name>
3-Chloro-2-fluoro-5-(trifluoromethyl)benzaldehyde

>  <IGC50>
4.24

>  <CAS>
261763-02-4

>  <SET>
ws

>  <Species>
Tetrahymena pyriformis

>  <Test duration>
48h

$$$$

  Mrv1808 07152009202D          

 12 12  0  0  0  0            999 V2000
    4.0136    0.0000    0.0000 C   0  0  0  0  0  0  0  0  0  0  0  0
    3.3000   -0.4125    0.0000 C   0  0  0  0  0  0  0  0  0  0  0  0
    3.3000   -1.2375    0.0000 C   0  0  0  0  0  0  0  0  0  0  0  0
    3.3000   -2.0625    0.0000 C   0  0  0  0  0  0  0  0  0  0  0  0
    4.1250   -1.2375    0.0000 C   0  0  0  0  0  0  0  0  0  0  0  0
    2.4750   -1.2375    0.0000 C   0  0  0  0  0  0  0  0  0  0  0  0
    2.0625   -1.9511    0.0000 C   0  0  0  0  0  0  0  0  0  0  0  0
    2.0625   -0.5239    0.0000 C   0  0  0  0  0  0  0  0  0  0  0  0
    1.2375   -1.9511    0.0000 C   0  0  0  0  0  0  0  0  0  0  0  0
    1.2375   -0.5239    0.0000 C   0  0  0  0  0  0  0  0  0  0  0  0
    0.8250   -1.2375    0.0000 C   0  0  0  0  0  0  0  0  0  0  0  0
    0.0000   -1.2375    0.0000 O   0  0  0  0  0  0  0  0  0  0  0  0
  1  2  1  0  0  0  0
  2  3  1  0  0  0  0
  3  4  1  0  0  0  0
  3  5  1  0  0  0  0
  3  6  1  0  0  0  0
  6  7  2  0  0  0  0
  6  8  1  0  0  0  0
  7  9  1  0  0  0  0
 10  8  2  0  0  0  0
  9 11  2  0  0  0  0
 11 10  1  0  0  0  0
 11 12  1  0  0  0  0
M  END
>  <Name>
Phenol, 4-(1,1-dimethylpropyl)-

>  <IGC50>
4.23

>  <CAS>
80-46-6

>  <SET>
ws

>  <Species>
Tetrahymena pyriformis

>  <Test duration>
48h

$$$$

  Mrv1808 07152009203D          

 15 16  0  0  0  0            999 V2000
    1.3137   -0.8569   -2.0611 O   0  0  0  0  0  0  0  0  0  0  0  0
    1.8439   -0.2901   -0.9407 C   0  0  0  0  0  0  0  0  0  0  0  0
    1.1992   -0.3238    0.2743 C   0  0  0  0  0  0  0  0  0  0  0  0
    3.0828    0.3459   -1.0228 C   0  0  0  0  0  0  0  0  0  0  0  0
   -0.1282   -1.0009    0.3851 C   0  0  0  0  0  0  0  0  0  0  0  0
    1.7260    0.2439    1.4127 C   0  0  0  0  0  0  0  0  0  0  0  0
    3.6432    0.9306    0.1128 C   0  0  0  0  0  0  0  0  0  0  0  0
   -0.1291   -2.2084    0.6678 O   0  0  0  0  0  0  0  0  0  0  0  0
   -1.3828   -0.2961    0.1752 C   0  0  0  0  0  0  0  0  0  0  0  0
    2.9649    0.8797    1.3304 C   0  0  0  0  0  0  0  0  0  0  0  0
   -1.3749    1.0620   -0.1430 C   0  0  0  0  0  0  0  0  0  0  0  0
   -2.5940   -0.9782    0.2918 C   0  0  0  0  0  0  0  0  0  0  0  0
   -2.5783    1.7381   -0.3446 C   0  0  0  0  0  0  0  0  0  0  0  0
   -3.7973   -0.3019    0.0902 C   0  0  0  0  0  0  0  0  0  0  0  0
   -3.7893    1.0562   -0.2281 C   0  0  0  0  0  0  0  0  0  0  0  0
  1  2  1  0  0  0  0
  3  2  1  0  0  0  0
  2  4  2  0  0  0  0
  3  5  1  0  0  0  0
  3  6  2  0  0  0  0
  4  7  1  0  0  0  0
  8  5  2  0  0  0  0
  9  5  1  0  0  0  0
  6 10  1  0  0  0  0
 10  7  2  0  0  0  0
  9 11  2  0  0  0  0
  9 12  1  0  0  0  0
 11 13  1  0  0  0  0
 12 14  2  0  0  0  0
 13 15  2  0  0  0  0
 14 15  1  0  0  0  0
M  END
>  <Name>
(2-hydroxyphenyl)-phenylmethanone

>  <IGC50>
4.23

>  <CAS>
117-99-7

>  <SET>
ws

>  <Species>
Tetrahymena pyriformis

>  <Test duration>
48h

$$$$

  Mrv1808 07152009203D          

 14 14  0  0  0  0            999 V2000
    0.9477   -0.7257    0.0000 C   0  0  0  0  0  0  0  0  0  0  0  0
   -0.0551    0.1769    0.0012 C   0  0  0  0  0  0  0  0  0  0  0  0
    2.3473   -0.2707    0.0011 C   0  0  0  0  0  0  0  0  0  0  0  0
   -1.4458   -0.2753    0.0001 C   0  0  0  0  0  0  0  0  0  0  0  0
    3.3894   -1.2030   -0.0002 C   0  0  0  0  0  0  0  0  0  0  0  0
    2.6419    1.0967   -0.0025 C   0  0  0  0  0  0  0  0  0  0  0  0
   -2.4485    0.6272    0.0013 O   0  0  0  0  0  0  0  0  0  0  0  0
   -1.6985   -1.4650   -0.0018 O   0  0  0  0  0  0  0  0  0  0  0  0
    4.6983   -0.7687    0.0004 C   0  0  0  0  0  0  0  0  0  0  0  0
    3.9555    1.5150   -0.0020 C   0  0  0  0  0  0  0  0  0  0  0  0
   -3.6707   -0.1132   -0.0002 C   0  0  0  0  0  0  0  0  0  0  0  0
    4.9816    0.5858    0.0026 C   0  0  0  0  0  0  0  0  0  0  0  0
   -4.8544    0.8562    0.0011 C   0  0  0  0  0  0  0  0  0  0  0  0
   -6.1629    0.0634   -0.0005 C   0  0  0  0  0  0  0  0  0  0  0  0
  1  2  2  0  0  0  0
  1  3  1  0  0  0  0
  2  4  1  0  0  0  0
  3  5  2  0  0  0  0
  3  6  1  0  0  0  0
  4  7  1  0  0  0  0
  4  8  2  0  0  0  0
  5  9  1  0  0  0  0
  6 10  2  0  0  0  0
  7 11  1  0  0  0  0
  9 12  2  0  0  0  0
 10 12  1  0  0  0  0
 11 13  1  0  0  0  0
 13 14  1  0  0  0  0
M  END
>  <Name>
2-Propenoic acid, 3-phenyl-, propyl ester

>  <IGC50>
4.23

>  <CAS>
7778-83-8

>  <SET>
ws

>  <Species>
Tetrahymena pyriformis

>  <Test duration>
48h

$$$$

  Mrv1808 07152009202D          

 14 14  0  0  0  0            999 V2000
    2.1527   -0.8250    0.0000 C   0  0  0  0  0  0  0  0  0  0  0  0
    2.1527    0.0000    0.0000 O   0  0  0  0  0  0  0  0  0  0  0  0
    2.8616   -1.2461    0.0000 C   0  0  0  0  0  0  0  0  0  0  0  0
    1.4351   -1.2461    0.0000 C   0  0  0  0  0  0  0  0  0  0  0  0
    2.8616   -2.0711    0.0000 C   0  0  0  0  0  0  0  0  0  0  0  0
    3.5792   -0.8250    0.0000 N   0  3  0  0  0  0  0  0  0  0  0  0
    1.4351   -2.0711    0.0000 C   0  0  0  0  0  0  0  0  0  0  0  0
    0.7176   -0.8250    0.0000 N   0  3  0  0  0  0  0  0  0  0  0  0
    2.1527   -2.4792    0.0000 C   0  0  0  0  0  0  0  0  0  0  0  0
    3.5792    0.0000    0.0000 O   0  5  0  0  0  0  0  0  0  0  0  0
    4.2967   -1.2461    0.0000 O   0  0  0  0  0  0  0  0  0  0  0  0
    0.0000   -1.2461    0.0000 O   0  5  0  0  0  0  0  0  0  0  0  0
    0.7176    0.0000    0.0000 O   0  0  0  0  0  0  0  0  0  0  0  0
    2.1527   -3.3085    0.0000 C   0  0  0  0  0  0  0  0  0  0  0  0
  1  2  1  0  0  0  0
  1  3  2  0  0  0  0
  1  4  1  0  0  0  0
  3  5  1  0  0  0  0
  3  6  1  0  0  0  0
  4  7  2  0  0  0  0
  4  8  1  0  0  0  0
  5  9  2  0  0  0  0
  6 10  1  0  0  0  0
  6 11  2  0  0  0  0
  7  9  1  0  0  0  0
  8 12  1  0  0  0  0
  8 13  2  0  0  0  0
  9 14  1  0  0  0  0
M  CHG  4   6   1   8   1  10  -1  12  -1
M  END
>  <Name>
Phenol, 4-methyl-2,6-dinitro-

>  <IGC50>
4.23

>  <CAS>
609-93-8

>  <SET>
ws

>  <Species>
Tetrahymena pyriformis

>  <Test duration>
48h

$$$$

  Mrv1808 07152009203D          

 10  9  0  0  0  0            999 V2000
    5.2715   -0.5494    0.2518 O   0  0  0  0  0  0  0  0  0  0  0  0
    4.2332   -0.2851   -0.3425 C   0  0  0  0  0  0  0  0  0  0  0  0
    2.9525   -0.1012    0.3678 C   0  0  0  0  0  0  0  0  0  0  0  0
    1.8533    0.1875   -0.3393 C   0  0  0  0  0  0  0  0  0  0  0  0
    0.5596    0.3852    0.2753 C   0  0  0  0  0  0  0  0  0  0  0  0
   -0.5484    0.6747   -0.4231 C   0  0  0  0  0  0  0  0  0  0  0  0
   -1.8976    0.8769    0.2049 C   0  0  0  0  0  0  0  0  0  0  0  0
   -2.9011   -0.1676   -0.2879 C   0  0  0  0  0  0  0  0  0  0  0  0
   -4.2659    0.0181    0.3759 C   0  0  0  0  0  0  0  0  0  0  0  0
   -5.2572   -1.0392   -0.0830 C   0  0  0  0  0  0  0  0  0  0  0  0
  1  2  2  0  0  0  0
  3  2  1  0  0  0  0
  4  3  2  0  0  0  0
  5  4  1  0  0  0  0
  6  5  2  0  0  0  0
  7  6  1  0  0  0  0
  8  7  1  0  0  0  0
  8  9  1  0  0  0  0
  9 10  1  0  0  0  0
M  END
>  <Name>
(2E,4E)-nona-2,4-dienal

>  <IGC50>
4.22

>  <CAS>
5910-87-2

>  <SET>
ws

>  <Species>
Tetrahymena pyriformis

>  <Test duration>
48h

$$$$

  Mrv1808 07152009202D          

  9  9  0  0  0  0            999 V2000
    0.0000   -1.4298    0.0000 Cl  0  0  0  0  0  0  0  0  0  0  0  0
    0.8264   -1.4298    0.0000 C   0  0  0  0  0  0  0  0  0  0  0  0
    1.2382   -0.7149    0.0000 C   0  0  0  0  0  0  0  0  0  0  0  0
    1.2382   -2.1446    0.0000 C   0  0  0  0  0  0  0  0  0  0  0  0
    0.8264    0.0000    0.0000 Cl  0  0  0  0  0  0  0  0  0  0  0  0
    2.0646   -0.7149    0.0000 C   0  0  0  0  0  0  0  0  0  0  0  0
    2.0646   -2.1446    0.0000 C   0  0  0  0  0  0  0  0  0  0  0  0
    0.8264   -2.8595    0.0000 Cl  0  0  0  0  0  0  0  0  0  0  0  0
    2.4763   -1.4298    0.0000 C   0  0  0  0  0  0  0  0  0  0  0  0
  1  2  1  0  0  0  0
  2  3  2  0  0  0  0
  2  4  1  0  0  0  0
  3  5  1  0  0  0  0
  3  6  1  0  0  0  0
  7  4  2  0  0  0  0
  4  8  1  0  0  0  0
  6  9  2  0  0  0  0
  9  7  1  0  0  0  0
M  END
>  <Name>
Benzene, 1,2,3-trichloro-

>  <IGC50>
4.21

>  <CAS>
87-61-6

>  <SET>
ws

>  <Species>
Tetrahymena pyriformis

>  <Test duration>
48h

$$$$

  Mrv1808 07152009202D          

 11 10  0  0  0  0            999 V2000
    0.0000    0.0000    0.0000 O   0  0  0  0  0  0  0  0  0  0  0  0
    0.7135    0.4188    0.0000 C   0  0  0  0  0  0  0  0  0  0  0  0
    1.4269    0.0046    0.0000 C   0  0  0  0  0  0  0  0  0  0  0  0
    2.1402    0.4235    0.0000 C   0  0  0  0  0  0  0  0  0  0  0  0
    2.8536    0.0093    0.0000 C   0  0  0  0  0  0  0  0  0  0  0  0
    3.5671    0.4280    0.0000 C   0  0  0  0  0  0  0  0  0  0  0  0
    4.2804    0.0138    0.0000 C   0  0  0  0  0  0  0  0  0  0  0  0
    4.9939    0.4327    0.0000 C   0  0  0  0  0  0  0  0  0  0  0  0
    5.7073    0.0184    0.0000 C   0  0  0  0  0  0  0  0  0  0  0  0
    6.4206    0.4373    0.0000 C   0  0  0  0  0  0  0  0  0  0  0  0
    7.1341    0.0230    0.0000 C   0  0  0  0  0  0  0  0  0  0  0  0
  1  2  2  0  0  0  0
  2  3  1  0  0  0  0
  3  4  1  0  0  0  0
  4  5  1  0  0  0  0
  5  6  2  0  0  0  0
  6  7  1  0  0  0  0
  7  8  1  0  0  0  0
  8  9  1  0  0  0  0
  9 10  1  0  0  0  0
 10 11  1  0  0  0  0
M  END
>  <Name>
4-Decenal, (4E)-

>  <IGC50>
4.208

>  <CAS>
65405-70-1

>  <SET>
ws

>  <Species>
Tetrahymena pyriformis

>  <Test duration>
48h

$$$$

  Mrv1808 07152009203D          

 10 10  0  0  0  0            999 V2000
   -1.9288    0.0943    1.4247 S   0  0  0  0  0  0  0  0  0  0  0  0
   -1.1632   -0.5982    0.0765 C   0  0  0  0  0  0  0  0  0  0  0  0
   -2.8747    1.0964    0.4081 C   0  0  0  0  0  0  0  0  0  0  0  0
   -0.1159   -1.6597    0.3064 C   0  0  0  0  0  0  0  0  0  0  0  0
   -1.5928   -0.1035   -1.1147 C   0  0  0  0  0  0  0  0  0  0  0  0
   -2.5960    0.8902   -0.9251 C   0  0  0  0  0  0  0  0  0  0  0  0
    1.2392   -1.3183   -0.3235 C   0  0  0  0  0  0  0  0  0  0  0  0
    1.8843   -0.0634    0.2730 C   0  0  0  0  0  0  0  0  0  0  0  0
    3.2424    0.2198   -0.3701 C   0  0  0  0  0  0  0  0  0  0  0  0
    3.9055    1.4422    0.2446 C   0  0  0  0  0  0  0  0  0  0  0  0
  1  2  1  0  0  0  0
  1  3  1  0  0  0  0
  4  2  1  0  0  0  0
  2  5  2  0  0  0  0
  6  3  2  0  0  0  0
  7  4  1  0  0  0  0
  5  6  1  0  0  0  0
  7  8  1  0  0  0  0
  8  9  1  0  0  0  0
  9 10  1  0  0  0  0
M  END
>  <Name>
2-pentylthiophene

>  <IGC50>
4.2

>  <CAS>
4861-58-9

>  <SET>
ws

>  <Species>
Tetrahymena pyriformis

>  <Test duration>
48h

$$$$

  Mrv1808 07152009202D          

 10 10  0  0  0  0            999 V2000
    1.4322   -0.8250    0.0000 C   0  0  0  0  0  0  0  0  0  0  0  0
    1.4322    0.0000    0.0000 O   0  0  0  0  0  0  0  0  0  0  0  0
    2.1484   -1.2442    0.0000 C   0  0  0  0  0  0  0  0  0  0  0  0
    0.7161   -1.2442    0.0000 C   0  0  0  0  0  0  0  0  0  0  0  0
    2.1484   -2.0692    0.0000 C   0  0  0  0  0  0  0  0  0  0  0  0
    0.7161   -2.0692    0.0000 C   0  0  0  0  0  0  0  0  0  0  0  0
    1.4322   -2.4751    0.0000 C   0  0  0  0  0  0  0  0  0  0  0  0
    2.8612   -2.4751    0.0000 C   0  0  0  0  0  0  0  0  0  0  0  0
    0.0000   -2.4751    0.0000 C   0  0  0  0  0  0  0  0  0  0  0  0
    1.4322   -3.3001    0.0000 Cl  0  0  0  0  0  0  0  0  0  0  0  0
  1  2  1  0  0  0  0
  1  3  2  0  0  0  0
  1  4  1  0  0  0  0
  3  5  1  0  0  0  0
  4  6  2  0  0  0  0
  5  7  2  0  0  0  0
  5  8  1  0  0  0  0
  6  7  1  0  0  0  0
  6  9  1  0  0  0  0
  7 10  1  0  0  0  0
M  END
>  <Name>
Phenol, 4-chloro-3,5-dimethyl-

>  <IGC50>
4.2

>  <CAS>
88-04-0

>  <SET>
ws

>  <Species>
Tetrahymena pyriformis

>  <Test duration>
48h

$$$$

  Mrv1808 07152009203D          

  9  8  0  0  0  0            999 V2000
    3.8113    1.3494   -0.1769 O   0  0  0  0  0  0  0  0  0  0  0  0
    2.9844    0.6543    0.4010 C   0  0  0  0  0  0  0  0  0  0  0  0
    1.9922   -0.1519   -0.3349 C   0  0  0  0  0  0  0  0  0  0  0  0
    1.1139   -0.8918    0.3529 C   0  0  0  0  0  0  0  0  0  0  0  0
    0.0586   -1.7378   -0.3012 C   0  0  0  0  0  0  0  0  0  0  0  0
   -1.3650   -1.3830    0.1405 C   0  0  0  0  0  0  0  0  0  0  0  0
   -1.7844    0.0405   -0.2389 C   0  0  0  0  0  0  0  0  0  0  0  0
   -3.1994    0.3491    0.2519 C   0  0  0  0  0  0  0  0  0  0  0  0
   -3.6117    1.7711   -0.0944 C   0  0  0  0  0  0  0  0  0  0  0  0
  1  2  2  0  0  0  0
  3  2  1  0  0  0  0
  4  3  2  0  0  0  0
  5  4  1  0  0  0  0
  6  5  1  0  0  0  0
  7  6  1  0  0  0  0
  7  8  1  0  0  0  0
  8  9  1  0  0  0  0
M  END
>  <Name>
(E)-oct-2-enal

>  <IGC50>
4.2

>  <CAS>
2548-87-0

>  <SET>
ws

>  <Species>
Tetrahymena pyriformis

>  <Test duration>
48h

$$$$

  Mrv1808 07152009202D          

 10  9  0  0  0  0            999 V2000
    0.0000    0.0000    0.0000 S   0  0  0  0  0  0  0  0  0  0  0  0
    0.7111    0.4183    0.0000 C   0  0  0  0  0  0  0  0  0  0  0  0
    1.4222    0.0000    0.0000 C   0  0  0  0  0  0  0  0  0  0  0  0
    2.1751    0.4183    0.0000 C   0  0  0  0  0  0  0  0  0  0  0  0
    2.8444    0.0000    0.0000 C   0  0  0  0  0  0  0  0  0  0  0  0
    3.5555    0.4183    0.0000 C   0  0  0  0  0  0  0  0  0  0  0  0
    4.2666    0.0000    0.0000 C   0  0  0  0  0  0  0  0  0  0  0  0
    5.0196    0.4183    0.0000 C   0  0  0  0  0  0  0  0  0  0  0  0
    5.7306    0.0000    0.0000 C   0  0  0  0  0  0  0  0  0  0  0  0
    6.4835    0.4183    0.0000 S   0  0  0  0  0  0  0  0  0  0  0  0
  1  2  1  0  0  0  0
  2  3  1  0  0  0  0
  3  4  1  0  0  0  0
  4  5  1  0  0  0  0
  5  6  1  0  0  0  0
  6  7  1  0  0  0  0
  8  7  1  0  0  0  0
  9  8  1  0  0  0  0
 10  9  1  0  0  0  0
M  END
>  <Name>
Octane-1,8-dithiol

>  <IGC50>
4.191

>  <CAS>
1191-62-4

>  <SET>
ws

>  <Species>
Tetrahymena pyriformis

>  <Test duration>
48h

$$$$

  Mrv1808 07152009202D          

 12 12  0  0  0  0            999 V2000
    0.4183    2.1332    0.0000 C   0  0  0  0  0  0  0  0  0  0  0  0
    0.0000    1.4221    0.0000 O   0  0  0  0  0  0  0  0  0  0  0  0
    1.2130    2.1332    0.0000 C   0  0  0  0  0  0  0  0  0  0  0  0
    1.6313    2.8443    0.0000 C   0  0  0  0  0  0  0  0  0  0  0  0
    1.6313    1.4221    0.0000 C   0  0  0  0  0  0  0  0  0  0  0  0
    2.4678    2.8443    0.0000 C   0  0  0  0  0  0  0  0  0  0  0  0
    2.4260    1.4221    0.0000 C   0  0  0  0  0  0  0  0  0  0  0  0
    2.8443    2.1332    0.0000 C   0  0  0  0  0  0  0  0  0  0  0  0
    2.8443    0.7111    0.0000 N   0  0  0  0  0  0  0  0  0  0  0  0
    3.6809    2.1332    0.0000 Cl  0  0  0  0  0  0  0  0  0  0  0  0
    3.6809    0.7111    0.0000 O   0  0  0  0  0  0  0  0  0  0  0  0
    2.4260    0.0000    0.0000 O   0  0  0  0  0  0  0  0  0  0  0  0
  1  2  2  0  0  0  0
  1  3  1  0  0  0  0
  4  3  2  0  0  0  0
  3  5  1  0  0  0  0
  6  4  1  0  0  0  0
  5  7  2  0  0  0  0
  8  6  2  0  0  0  0
  7  8  1  0  0  0  0
  7  9  1  0  0  0  0
  8 10  1  0  0  0  0
  9 11  2  0  0  0  0
  9 12  2  0  0  0  0
M  END
>  <Name>
Benzaldehyde, 4-chloro-3-nitro-

>  <IGC50>
4.19

>  <CAS>
16588-34-4

>  <SET>
ws

>  <Species>
Tetrahymena pyriformis

>  <Test duration>
48h

$$$$

  Mrv1808 07152009202D          

 11 11  0  0  0  0            999 V2000
    0.4129   -0.7143    0.0000 N   0  3  0  0  0  0  0  0  0  0  0  0
    0.0000    0.0000    0.0000 O   0  0  0  0  0  0  0  0  0  0  0  0
    0.0000   -1.4285    0.0000 O   0  5  0  0  0  0  0  0  0  0  0  0
    1.2386   -0.7143    0.0000 C   0  0  0  0  0  0  0  0  0  0  0  0
    1.6514    0.0000    0.0000 C   0  0  0  0  0  0  0  0  0  0  0  0
    1.6514   -1.4285    0.0000 C   0  0  0  0  0  0  0  0  0  0  0  0
    2.4772    0.0000    0.0000 C   0  0  0  0  0  0  0  0  0  0  0  0
    2.4772   -1.4285    0.0000 C   0  0  0  0  0  0  0  0  0  0  0  0
    2.8900   -0.7143    0.0000 C   0  0  0  0  0  0  0  0  0  0  0  0
    3.7158   -0.7143    0.0000 C   0  0  0  0  0  0  0  0  0  0  0  0
    4.1287    0.0000    0.0000 Cl  0  0  0  0  0  0  0  0  0  0  0  0
  1  2  2  0  0  0  0
  1  3  1  0  0  0  0
  1  4  1  0  0  0  0
  4  5  2  0  0  0  0
  4  6  1  0  0  0  0
  5  7  1  0  0  0  0
  8  6  2  0  0  0  0
  7  9  2  0  0  0  0
  9  8  1  0  0  0  0
  9 10  1  0  0  0  0
 10 11  1  0  0  0  0
M  CHG  2   1   1   3  -1
M  END
>  <Name>
Benzene, 1-(chloromethyl)-4-nitro-

>  <IGC50>
4.18

>  <CAS>
100-14-1

>  <SET>
ws

>  <Species>
Tetrahymena pyriformis

>  <Test duration>
48h

$$$$

  Mrv1808 07152009202D          

 11 11  0  0  0  0            999 V2000
   -0.8501    0.6148    0.0000 C   0  0  0  0  0  0  0  0  0  0  0  0
   -0.6811   -0.1972    0.0000 C   0  0  0  0  0  0  0  0  0  0  0  0
   -0.2312    1.1653    0.0000 C   0  0  0  0  0  0  0  0  0  0  0  0
   -1.5920    0.9129    0.0000 O   0  0  0  0  0  0  0  0  0  0  0  0
    0.0954   -0.4570    0.0000 C   0  0  0  0  0  0  0  0  0  0  0  0
   -1.4207   -0.8638    0.0000 Cl  0  0  0  0  0  0  0  0  0  0  0  0
    0.5418    0.9028    0.0000 C   0  0  0  0  0  0  0  0  0  0  0  0
    0.7109    0.0923    0.0000 C   0  0  0  0  0  0  0  0  0  0  0  0
    1.5479   -0.1841    0.0000 N   0  3  0  0  0  0  0  0  0  0  0  0
    1.6862   -0.8874    0.0000 O   0  0  0  0  0  0  0  0  0  0  0  0
    2.0780    0.2982    0.0000 O   0  5  0  0  0  0  0  0  0  0  0  0
  1  2  1  0  0  0  0
  1  3  2  0  0  0  0
  1  4  1  0  0  0  0
  2  5  2  0  0  0  0
  2  6  1  0  0  0  0
  7  3  1  0  0  0  0
  5  8  1  0  0  0  0
  8  7  2  0  0  0  0
  8  9  1  0  0  0  0
  9 10  2  0  0  0  0
  9 11  1  0  0  0  0
M  CHG  2   9   1  11  -1
M  END
>  <Name>
Phenol, 2-chloro-4-nitro-

>  <IGC50>
4.18

>  <CAS>
619-08-9

>  <SET>
ws

>  <Species>
Tetrahymena pyriformis

>  <Test duration>
48h

$$$$

  Mrv1808 07152009202D          

 15 15  0  0  0  0            999 V2000
    3.7125    1.4290    0.0000 O   0  0  0  0  0  0  0  0  0  0  0  0
    2.8875    1.4290    0.0000 C   0  0  0  0  0  0  0  0  0  0  0  0
    2.4750    0.7144    0.0000 C   0  0  0  0  0  0  0  0  0  0  0  0
    2.4750    2.1434    0.0000 C   0  0  0  0  0  0  0  0  0  0  0  0
    2.8875    0.0000    0.0000 O   0  0  0  0  0  0  0  0  0  0  0  0
    1.6500    0.7144    0.0000 C   0  0  0  0  0  0  0  0  0  0  0  0
    1.6500    2.1434    0.0000 C   0  0  0  0  0  0  0  0  0  0  0  0
    2.8875    2.8579    0.0000 N   0  3  0  0  0  0  0  0  0  0  0  0
    1.2375    0.0000    0.0000 O   0  0  0  0  0  0  0  0  0  0  0  0
    1.2375    1.4290    0.0000 C   0  0  0  0  0  0  0  0  0  0  0  0
    3.7125    2.8579    0.0000 O   0  0  0  0  0  0  0  0  0  0  0  0
    2.4750    3.5724    0.0000 O   0  5  0  0  0  0  0  0  0  0  0  0
    0.4125    1.4290    0.0000 N   0  3  0  0  0  0  0  0  0  0  0  0
    0.0000    0.7144    0.0000 O   0  0  0  0  0  0  0  0  0  0  0  0
    0.0000    2.1434    0.0000 O   0  5  0  0  0  0  0  0  0  0  0  0
  1  2  1  0  0  0  0
  2  3  1  0  0  0  0
  2  4  2  0  0  0  0
  3  5  1  0  0  0  0
  3  6  2  0  0  0  0
  7  4  1  0  0  0  0
  4  8  1  0  0  0  0
  6  9  1  0  0  0  0
  6 10  1  0  0  0  0
 10  7  2  0  0  0  0
  8 11  2  0  0  0  0
  8 12  1  0  0  0  0
 10 13  1  0  0  0  0
 13 14  2  0  0  0  0
 13 15  1  0  0  0  0
M  CHG  4   8   1  12  -1  13   1  15  -1
M  END
>  <Name>
Pyrogallol,4,6-dinitro- (7CI,8CI)

>  <IGC50>
4.18

>  <CAS>
3264-71-9

>  <SET>
ws

>  <Species>
Tetrahymena pyriformis

>  <Test duration>
48h

$$$$

  Mrv1808 07152009203D          

  8  7  0  0  0  0            999 V2000
    0.0000    0.0000    0.0000 C   0  0  0  0  0  0  0  0  0  0  0  0
    1.1800    0.5600    0.8200 C   0  0  0  0  0  0  0  0  0  0  0  0
    2.4800    0.5800    0.0400 C   0  0  0  0  0  0  0  0  0  0  0  0
    2.9400   -0.7400   -0.1600 O   0  0  0  0  0  0  0  0  0  0  0  0
    2.4600   -1.2800   -1.2800 C   0  0  0  0  0  0  0  0  0  0  0  0
    1.7400   -0.7000   -2.0600 O   0  0  0  0  0  0  0  0  0  0  0  0
    2.9000   -2.7000   -1.5400 C   0  0  0  0  0  0  0  0  0  0  0  0
    4.2800   -3.1200   -0.5000 Cl  0  0  0  0  0  0  0  0  0  0  0  0
  1  2  1  0  0  0  0
  2  3  1  0  0  0  0
  3  4  1  0  0  0  0
  4  5  1  0  0  0  0
  5  6  2  0  0  0  0
  5  7  1  0  0  0  0
  8  7  1  0  0  0  0
M  END
>  <Name>
propyl 2-chloroacetate

>  <IGC50>
4.18

>  <CAS>
5396-24-7

>  <SET>
ws

>  <Species>
Tetrahymena pyriformis

>  <Test duration>
48h

$$$$

  Mrv1808 07152009202D          

 14 14  0  0  0  0            999 V2000
    4.3314    1.2788    0.0000 C   0  0  0  0  0  0  0  0  0  0  0  0
    3.6301    1.6501    0.0000 O   0  0  0  0  0  0  0  0  0  0  0  0
    5.0327    1.6913    0.0000 C   0  0  0  0  0  0  0  0  0  0  0  0
    2.9289    1.2375    0.0000 C   0  0  0  0  0  0  0  0  0  0  0  0
    5.7752    1.2788    0.0000 C   0  0  0  0  0  0  0  0  0  0  0  0
    2.1863    1.6501    0.0000 C   0  0  0  0  0  0  0  0  0  0  0  0
    2.9289    0.4125    0.0000 C   0  0  0  0  0  0  0  0  0  0  0  0
    6.4765    1.6913    0.0000 C   0  0  0  0  0  0  0  0  0  0  0  0
    1.4851    1.2375    0.0000 C   0  0  0  0  0  0  0  0  0  0  0  0
    2.1863    0.0000    0.0000 C   0  0  0  0  0  0  0  0  0  0  0  0
    7.2190    1.2788    0.0000 C   0  0  0  0  0  0  0  0  0  0  0  0
    1.4851    0.4125    0.0000 C   0  0  0  0  0  0  0  0  0  0  0  0
    0.7425    0.0000    0.0000 C   0  0  0  0  0  0  0  0  0  0  0  0
    0.0000    0.4125    0.0000 O   0  0  0  0  0  0  0  0  0  0  0  0
  1  2  1  0  0  0  0
  1  3  1  0  0  0  0
  2  4  1  0  0  0  0
  3  5  1  0  0  0  0
  6  4  2  0  0  0  0
  4  7  1  0  0  0  0
  5  8  1  0  0  0  0
  9  6  1  0  0  0  0
  7 10  2  0  0  0  0
  8 11  1  0  0  0  0
 12  9  2  0  0  0  0
 10 12  1  0  0  0  0
 12 13  1  0  0  0  0
 13 14  2  0  0  0  0
M  END
>  <Name>
Benzaldehyde, 4-(pentyloxy)-

>  <IGC50>
4.18

>  <CAS>
5736-91-4

>  <SET>
ws

>  <Species>
Tetrahymena pyriformis

>  <Test duration>
48h

$$$$

  Mrv1808 07152009203D          

 11 11  0  0  0  0            999 V2000
    0.0000    0.0000    0.0000 O   0  0  0  0  0  0  0  0  0  0  0  0
    0.3600    1.2600    0.1800 C   0  0  0  0  0  0  0  0  0  0  0  0
    1.7200    1.6400    0.1200 C   0  0  0  0  0  0  0  0  0  0  0  0
   -0.6200    2.2400    0.4000 C   0  0  0  0  0  0  0  0  0  0  0  0
    2.6400    0.7000   -0.1000 F   0  0  0  0  0  0  0  0  0  0  0  0
    2.0800    2.9800    0.3200 C   0  0  0  0  0  0  0  0  0  0  0  0
   -1.9200    1.9000    0.4400 F   0  0  0  0  0  0  0  0  0  0  0  0
   -0.2600    3.5800    0.6000 C   0  0  0  0  0  0  0  0  0  0  0  0
    1.1000    3.9400    0.5600 C   0  0  0  0  0  0  0  0  0  0  0  0
    3.3600    3.3200    0.2800 F   0  0  0  0  0  0  0  0  0  0  0  0
   -1.1800    4.5200    0.8200 F   0  0  0  0  0  0  0  0  0  0  0  0
  1  2  1  0  0  0  0
  2  3  2  0  0  0  0
  2  4  1  0  0  0  0
  3  5  1  0  0  0  0
  3  6  1  0  0  0  0
  7  4  1  0  0  0  0
  4  8  2  0  0  0  0
  9  6  2  0  0  0  0
  6 10  1  0  0  0  0
 11  8  1  0  0  0  0
  8  9  1  0  0  0  0
M  END
>  <Name>
2,3,5,6-tetrafluorophenol

>  <IGC50>
4.17

>  <CAS>
769-39-1

>  <SET>
ws

>  <Species>
Tetrahymena pyriformis

>  <Test duration>
48h

$$$$

  Mrv1808 07152009202D          

 11 11  0  0  0  0            999 V2000
    2.0496    0.6692    0.0000 C   0  0  0  0  0  0  0  0  0  0  0  0
    1.2549    0.6692    0.0000 C   0  0  0  0  0  0  0  0  0  0  0  0
    2.4679    1.4222    0.0000 C   0  0  0  0  0  0  0  0  0  0  0  0
    0.8365    1.4222    0.0000 C   0  0  0  0  0  0  0  0  0  0  0  0
    0.8365    0.0000    0.0000 O   0  0  0  0  0  0  0  0  0  0  0  0
    2.0496    2.1333    0.0000 C   0  0  0  0  0  0  0  0  0  0  0  0
    3.3045    1.4222    0.0000 N   0  0  0  0  0  0  0  0  0  0  0  0
    1.2549    2.1333    0.0000 C   0  0  0  0  0  0  0  0  0  0  0  0
    0.0000    1.4222    0.0000 O   0  0  0  0  0  0  0  0  0  0  0  0
    3.7228    0.6692    0.0000 O   0  0  0  0  0  0  0  0  0  0  0  0
    3.7228    2.1333    0.0000 O   0  0  0  0  0  0  0  0  0  0  0  0
  2  1  2  0  0  0  0
  1  3  1  0  0  0  0
  4  2  1  0  0  0  0
  2  5  1  0  0  0  0
  3  6  2  0  0  0  0
  3  7  1  0  0  0  0
  8  4  2  0  0  0  0
  4  9  1  0  0  0  0
  6  8  1  0  0  0  0
  7 10  2  0  0  0  0
  7 11  2  0  0  0  0
M  END
>  <Name>
4-Nitropyrocatechol

>  <IGC50>
4.17

>  <CAS>
3316-09-4

>  <SET>
ws

>  <Species>
Tetrahymena pyriformis

>  <Test duration>
48h

$$$$

  Mrv1808 07152009202D          

 12 12  0  0  0  0            999 V2000
    0.4113   -1.4265    0.0000 N   0  3  0  0  0  0  0  0  0  0  0  0
    0.0000   -0.7152    0.0000 O   0  0  0  0  0  0  0  0  0  0  0  0
    0.0000   -2.1417    0.0000 O   0  5  0  0  0  0  0  0  0  0  0  0
    1.2339   -1.4265    0.0000 C   0  0  0  0  0  0  0  0  0  0  0  0
    1.6452   -0.7152    0.0000 C   0  0  0  0  0  0  0  0  0  0  0  0
    1.6452   -2.1417    0.0000 C   0  0  0  0  0  0  0  0  0  0  0  0
    2.4715   -0.7152    0.0000 C   0  0  0  0  0  0  0  0  0  0  0  0
    2.4715   -2.1417    0.0000 C   0  0  0  0  0  0  0  0  0  0  0  0
    1.2339   -2.8531    0.0000 Cl  0  0  0  0  0  0  0  0  0  0  0  0
    2.8828    0.0000    0.0000 O   0  0  0  0  0  0  0  0  0  0  0  0
    2.8828   -1.4265    0.0000 C   0  0  0  0  0  0  0  0  0  0  0  0
    3.7054   -1.4265    0.0000 N   0  0  0  0  0  0  0  0  0  0  0  0
  1  2  2  0  0  0  0
  1  3  1  0  0  0  0
  1  4  1  0  0  0  0
  4  5  2  0  0  0  0
  4  6  1  0  0  0  0
  5  7  1  0  0  0  0
  8  6  2  0  0  0  0
  6  9  1  0  0  0  0
  7 10  1  0  0  0  0
  7 11  2  0  0  0  0
 11  8  1  0  0  0  0
 11 12  1  0  0  0  0
M  CHG  2   1   1   3  -1
M  END
>  <Name>
2-amino-4-chloro-5-nitrophenol

>  <IGC50>
4.17

>  <CAS>
6358-07-2

>  <SET>
ws

>  <Species>
Tetrahymena pyriformis

>  <Test duration>
48h

$$$$

  Mrv1808 07152009202D          

 11 11  0  0  0  0            999 V2000
    2.0625   -2.1450    0.0000 C   0  0  0  0  0  0  0  0  0  0  0  0
    1.2375   -2.1450    0.0000 C   0  0  0  0  0  0  0  0  0  0  0  0
    2.4750   -1.4314    0.0000 C   0  0  0  0  0  0  0  0  0  0  0  0
    0.8250   -2.8586    0.0000 Br  0  0  0  0  0  0  0  0  0  0  0  0
    0.8250   -1.4314    0.0000 C   0  0  0  0  0  0  0  0  0  0  0  0
    2.0625   -0.7136    0.0000 C   0  0  0  0  0  0  0  0  0  0  0  0
    3.3000   -1.4314    0.0000 C   0  0  0  0  0  0  0  0  0  0  0  0
    0.0000   -1.4314    0.0000 O   0  0  0  0  0  0  0  0  0  0  0  0
    1.2375   -0.7136    0.0000 C   0  0  0  0  0  0  0  0  0  0  0  0
    4.1250   -1.4314    0.0000 N   0  0  0  0  0  0  0  0  0  0  0  0
    0.8250    0.0000    0.0000 Br  0  0  0  0  0  0  0  0  0  0  0  0
  1  2  2  0  0  0  0
  1  3  1  0  0  0  0
  2  4  1  0  0  0  0
  2  5  1  0  0  0  0
  6  3  2  0  0  0  0
  3  7  1  0  0  0  0
  5  8  1  0  0  0  0
  5  9  2  0  0  0  0
  9  6  1  0  0  0  0
  7 10  3  0  0  0  0
  9 11  1  0  0  0  0
M  END
>  <Name>
Benzonitrile, 3,5-dibromo-4-hydroxy-

>  <IGC50>
4.16

>  <CAS>
1689-84-5

>  <SET>
ws

>  <Species>
Tetrahymena pyriformis

>  <Test duration>
48h

$$$$

  Mrv1808 07152009203D          

 13 13  0  0  0  0            999 V2000
    5.9054    4.0076    1.7959 C   0  0  0  0  0  0  0  0  0  0  0  0
    5.9103    2.6152    1.8590 C   0  0  0  0  0  0  0  0  0  0  0  0
    4.6780    4.6967    1.8686 C   0  0  0  0  0  0  0  0  0  0  0  0
    7.2036    4.7216    1.6512 C   0  0  0  0  0  0  0  0  0  0  0  0
    4.7191    1.9101    1.9806 C   0  0  0  0  0  0  0  0  0  0  0  0
    3.4559    4.0011    2.0274 C   0  0  0  0  0  0  0  0  0  0  0  0
    4.6192    6.0616    1.7736 O   0  0  0  0  0  0  0  0  0  0  0  0
    3.5137    2.6084    2.0575 C   0  0  0  0  0  0  0  0  0  0  0  0
    4.7130    0.4253    2.0317 C   0  0  0  0  0  0  0  0  0  0  0  0
    2.1050    4.6957    2.1266 C   0  0  1  0  0  0  0  0  0  0  0  0
    1.7480    5.2790    0.7570 C   0  0  0  0  0  0  0  0  0  0  0  0
    0.9876    3.7236    2.5330 C   0  0  0  0  0  0  0  0  0  0  0  0
    2.1228    5.8032    3.1853 C   0  0  0  0  0  0  0  0  0  0  0  0
  1  2  2  0  0  0  0
  3  1  1  0  0  0  0
  1  4  1  0  0  0  0
  2  5  1  0  0  0  0
  6  3  2  0  0  0  0
  3  7  1  0  0  0  0
  5  8  2  0  0  0  0
  5  9  1  0  0  0  0
  8  6  1  0  0  0  0
  6 10  1  0  0  0  0
 10 11  1  0  0  0  0
 10 12  1  0  0  0  0
 10 13  1  0  0  0  0
M  END
>  <Name>
Phenol, 2-(1,1-dimethylethyl)-4,6-dimethyl-

>  <IGC50>
4.16

>  <CAS>
1879-09-0

>  <SET>
ws

>  <Species>
Tetrahymena pyriformis

>  <Test duration>
48h

$$$$

  Mrv1808 07152009202D          

 10 10  0  0  0  0            999 V2000
    0.0000    1.4438    0.0000 O   0  0  0  0  0  0  0  0  0  0  0  0
    0.8250    1.4438    0.0000 C   0  0  0  0  0  0  0  0  0  0  0  0
    1.2375    2.1450    0.0000 C   0  0  0  0  0  0  0  0  0  0  0  0
    1.2375    0.7425    0.0000 C   0  0  0  0  0  0  0  0  0  0  0  0
    0.8250    2.8876    0.0000 C   0  0  0  0  0  0  0  0  0  0  0  0
    2.0626    2.1450    0.0000 C   0  0  0  0  0  0  0  0  0  0  0  0
    0.8250    0.0000    0.0000 C   0  0  0  0  0  0  0  0  0  0  0  0
    2.0626    0.7425    0.0000 C   0  0  0  0  0  0  0  0  0  0  0  0
    2.4751    1.4438    0.0000 C   0  0  0  0  0  0  0  0  0  0  0  0
    3.3001    1.4438    0.0000 Br  0  0  0  0  0  0  0  0  0  0  0  0
  1  2  1  0  0  0  0
  3  2  2  0  0  0  0
  2  4  1  0  0  0  0
  3  5  1  0  0  0  0
  6  3  1  0  0  0  0
  4  7  1  0  0  0  0
  4  8  2  0  0  0  0
  9  6  2  0  0  0  0
  8  9  1  0  0  0  0
  9 10  1  0  0  0  0
M  END
>  <Name>
Phenol, 4-bromo-2,6-dimethyl-

>  <IGC50>
4.16

>  <CAS>
2374-05-2

>  <SET>
ws

>  <Species>
Tetrahymena pyriformis

>  <Test duration>
48h

$$$$

  Mrv1808 07152009202D          

 11 11  0  0  0  0            999 V2000
    2.0914    0.7529    0.0000 C   0  0  0  0  0  0  0  0  0  0  0  0
    1.2548    0.7529    0.0000 C   0  0  0  0  0  0  0  0  0  0  0  0
    2.5097    1.4640    0.0000 C   0  0  0  0  0  0  0  0  0  0  0  0
    0.8366    1.4640    0.0000 C   0  0  0  0  0  0  0  0  0  0  0  0
    0.8366    0.0000    0.0000 C   0  0  0  0  0  0  0  0  0  0  0  0
    2.0914    2.1751    0.0000 C   0  0  0  0  0  0  0  0  0  0  0  0
    3.3045    1.4640    0.0000 N   0  0  0  0  0  0  0  0  0  0  0  0
    1.2548    2.1751    0.0000 C   0  0  0  0  0  0  0  0  0  0  0  0
    0.0000    1.4640    0.0000 Br  0  0  0  0  0  0  0  0  0  0  0  0
    3.7227    2.1751    0.0000 O   0  0  0  0  0  0  0  0  0  0  0  0
    3.6810    0.7529    0.0000 O   0  0  0  0  0  0  0  0  0  0  0  0
  2  1  2  0  0  0  0
  1  3  1  0  0  0  0
  4  2  1  0  0  0  0
  2  5  1  0  0  0  0
  3  6  2  0  0  0  0
  3  7  1  0  0  0  0
  8  4  2  0  0  0  0
  4  9  1  0  0  0  0
  6  8  1  0  0  0  0
  7 10  2  0  0  0  0
  7 11  2  0  0  0  0
M  END
>  <Name>
2-Bromo-5-nitrotoluene

>  <IGC50>
4.16

>  <CAS>
7149-70-4

>  <SET>
ws

>  <Species>
Tetrahymena pyriformis

>  <Test duration>
48h

$$$$

  Mrv1808 07152009202D          

  8  8  0  0  0  0            999 V2000
    1.2461    2.1600    0.0000 C   0  0  0  0  0  0  0  0  0  0  0  0
    0.8308    1.4538    0.0000 C   0  0  0  0  0  0  0  0  0  0  0  0
    2.0769    2.1600    0.0000 C   0  0  0  0  0  0  0  0  0  0  0  0
    1.2461    0.7477    0.0000 C   0  0  0  0  0  0  0  0  0  0  0  0
    0.0000    1.4538    0.0000 O   0  0  0  0  0  0  0  0  0  0  0  0
    2.4922    1.4538    0.0000 C   0  0  0  0  0  0  0  0  0  0  0  0
    2.0769    0.7061    0.0000 C   0  0  0  0  0  0  0  0  0  0  0  0
    2.4922    0.0000    0.0000 Br  0  0  0  0  0  0  0  0  0  0  0  0
  1  2  2  0  0  0  0
  3  1  1  0  0  0  0
  2  4  1  0  0  0  0
  2  5  1  0  0  0  0
  6  3  2  0  0  0  0
  4  7  2  0  0  0  0
  7  6  1  0  0  0  0
  7  8  1  0  0  0  0
M  END
>  <Name>
Phenol, 3-bromo-

>  <IGC50>
4.15

>  <CAS>
591-20-8

>  <SET>
ws

>  <Species>
Tetrahymena pyriformis

>  <Test duration>
48h

$$$$

  Mrv1808 07152009203D          

 14 14  0  0  0  0            999 V2000
    0.0004   -2.4190   -0.2251 N   0  0  0  0  0  0  0  0  0  0  0  0
   -0.0001   -1.0611   -0.0632 C   0  0  0  0  0  0  0  0  0  0  0  0
   -1.2316   -0.3273   -0.0149 C   0  0  0  0  0  0  0  0  0  0  0  0
    1.2315   -0.3273   -0.0148 C   0  0  0  0  0  0  0  0  0  0  0  0
   -1.2091    1.0692   -0.0038 C   0  0  0  0  0  0  0  0  0  0  0  0
   -2.5480   -1.0123    0.0382 N   0  3  0  0  0  0  0  0  0  0  0  0
    1.2089    1.0692   -0.0036 C   0  0  0  0  0  0  0  0  0  0  0  0
    2.5479   -1.0119    0.0384 N   0  3  0  0  0  0  0  0  0  0  0  0
   -0.0001    1.7534   -0.0122 C   0  0  0  0  0  0  0  0  0  0  0  0
   -3.5737   -0.3685    0.0524 O   0  0  0  0  0  0  0  0  0  0  0  0
   -2.5786   -2.2368    0.0756 O   0  5  0  0  0  0  0  0  0  0  0  0
    2.5787   -2.2364    0.0775 O   0  0  0  0  0  0  0  0  0  0  0  0
    3.5738   -0.3684    0.0508 O   0  5  0  0  0  0  0  0  0  0  0  0
   -0.0001    3.4408   -0.0138 Cl  0  0  0  0  0  0  0  0  0  0  0  0
  1  2  1  0  0  0  0
  2  3  1  0  0  0  0
  2  4  2  0  0  0  0
  3  5  2  0  0  0  0
  3  6  1  0  0  0  0
  7  4  1  0  0  0  0
  4  8  1  0  0  0  0
  5  9  1  0  0  0  0
  6 10  2  0  0  0  0
  6 11  1  0  0  0  0
  9  7  2  0  0  0  0
  8 12  2  0  0  0  0
  8 13  1  0  0  0  0
  9 14  1  0  0  0  0
M  CHG  4   6   1   8   1  11  -1  13  -1
M  END
>  <Name>
Aniline, 4-chloro-2,6-dinitro- (8CI)

>  <IGC50>
4.15

>  <CAS>
5388-62-5

>  <SET>
ws

>  <Species>
Tetrahymena pyriformis

>  <Test duration>
48h

$$$$

  Mrv1808 07152009202D          

  8  7  0  0  0  0            999 V2000
    0.0000    0.7948    0.0000 C   0  0  0  0  0  0  0  0  0  0  0  0
    0.7111    1.2131    0.0000 C   0  0  0  0  0  0  0  0  0  0  0  0
    1.4222    0.7948    0.0000 C   0  0  0  0  0  0  0  0  0  0  0  0
    2.1752    1.1712    0.0000 C   0  0  0  0  0  0  0  0  0  0  0  0
    2.8863    0.7948    0.0000 C   0  0  0  0  0  0  0  0  0  0  0  0
    3.5974    1.1712    0.0000 C   0  0  0  0  0  0  0  0  0  0  0  0
    2.8863    0.0000    0.0000 Br  0  0  0  0  0  0  0  0  0  0  0  0
    4.3085    0.7529    0.0000 Br  0  0  0  0  0  0  0  0  0  0  0  0
  1  2  1  0  0  0  0
  2  3  1  0  0  0  0
  3  4  1  0  0  0  0
  4  5  1  0  0  0  0
  5  6  1  0  0  0  0
  5  7  1  0  0  0  0
  6  8  1  0  0  0  0
M  END
>  <Name>
Hexane, 1,2-dibromo-

>  <IGC50>
4.146

>  <CAS>
624-20-4

>  <SET>
ws

>  <Species>
Tetrahymena pyriformis

>  <Test duration>
48h

$$$$

  Mrv1808 07152009203D          

 14 13  0  0  0  0            999 V2000
    1.0622    0.6342   -0.1012 C   0  0  1  0  0  0  0  0  0  0  0  0
   -0.2363   -0.1494   -0.3486 C   0  0  0  0  0  0  0  0  0  0  0  0
    0.9078    1.5858    1.0807 C   0  0  0  0  0  0  0  0  0  0  0  0
    2.0557   -0.3647    0.1852 O   0  0  0  0  0  0  0  0  0  0  0  0
   -1.3231    0.8116   -0.8281 C   0  0  0  0  0  0  0  0  0  0  0  0
    3.3700   -0.1029   -0.0723 C   0  0  0  0  0  0  0  0  0  0  0  0
   -2.5648    0.1589   -1.0402 O   0  0  0  0  0  0  0  0  0  0  0  0
    4.2416   -1.2477    0.2847 C   0  0  0  0  0  0  0  0  0  0  0  0
    3.7009    0.9694   -0.5441 O   0  0  0  0  0  0  0  0  0  0  0  0
   -3.4161   -0.0457    0.0127 C   0  0  0  0  0  0  0  0  0  0  0  0
    5.5607   -1.1974    0.1253 C   0  0  0  0  0  0  0  0  0  0  0  0
   -4.6522   -0.7512   -0.3979 C   0  0  0  0  0  0  0  0  0  0  0  0
   -3.1126    0.3527    1.1216 O   0  0  0  0  0  0  0  0  0  0  0  0
   -5.6166   -1.0343    0.4727 C   0  0  0  0  0  0  0  0  0  0  0  0
  1  2  1  0  0  0  0
  1  3  1  0  0  0  0
  1  4  1  0  0  0  0
  2  5  1  0  0  0  0
  6  4  1  0  0  0  0
  5  7  1  0  0  0  0
  6  8  1  0  0  0  0
  6  9  2  0  0  0  0
 10  7  1  0  0  0  0
  8 11  2  0  0  0  0
 10 12  1  0  0  0  0
 10 13  2  0  0  0  0
 12 14  2  0  0  0  0
M  END
>  <Name>
2-Propenoic acid, 1-methyl-1,3-propanediyl ester

>  <IGC50>
4.144

>  <CAS>
19485-03-1

>  <SET>
ws

>  <Species>
Tetrahymena pyriformis

>  <Test duration>
48h

$$$$

  Mrv1808 07152009203D          

 11 11  0  0  0  0            999 V2000
   -0.7889    0.9285    0.0368 C   0  0  0  0  0  0  0  0  0  0  0  0
   -0.4622   -0.4333   -0.0059 C   0  0  0  0  0  0  0  0  0  0  0  0
    0.2239    1.8915    0.0463 C   0  0  0  0  0  0  0  0  0  0  0  0
   -2.3747    1.4658    0.0939 Cl  0  0  0  0  0  0  0  0  0  0  0  0
    0.8836   -0.8187   -0.0280 C   0  0  0  0  0  0  0  0  0  0  0  0
   -1.5144   -1.5053   -0.0334 N   0  3  0  0  0  0  0  0  0  0  0  0
    1.5560    1.5093    0.0144 C   0  0  0  0  0  0  0  0  0  0  0  0
    1.8786    0.1520   -0.0207 C   0  0  0  0  0  0  0  0  0  0  0  0
   -1.2878   -2.5601    0.5235 O   0  0  0  0  0  0  0  0  0  0  0  0
   -2.5566   -1.3029   -0.6191 O   0  5  0  0  0  0  0  0  0  0  0  0
    3.4941   -0.3166   -0.0536 Cl  0  0  0  0  0  0  0  0  0  0  0  0
  1  2  1  0  0  0  0
  1  3  2  0  0  0  0
  1  4  1  0  0  0  0
  2  5  2  0  0  0  0
  2  6  1  0  0  0  0
  7  3  1  0  0  0  0
  5  8  1  0  0  0  0
  6  9  2  0  0  0  0
  6 10  1  0  0  0  0
  8  7  2  0  0  0  0
  8 11  1  0  0  0  0
M  CHG  2   6   1  10  -1
M  END
>  <Name>
Benzene, 1,4-dichloro-2-nitro-

>  <IGC50>
4.13

>  <CAS>
89-61-2

>  <SET>
ws

>  <Species>
Tetrahymena pyriformis

>  <Test duration>
48h

$$$$

  Mrv1808 07152009202D          

  9  9  0  0  0  0            999 V2000
    2.8594   -1.6499    0.0000 O   0  0  0  0  0  0  0  0  0  0  0  0
    2.1445   -1.2381    0.0000 C   0  0  0  0  0  0  0  0  0  0  0  0
    1.4297   -1.6499    0.0000 C   0  0  0  0  0  0  0  0  0  0  0  0
    2.1445   -0.4118    0.0000 C   0  0  0  0  0  0  0  0  0  0  0  0
    0.7148   -1.2381    0.0000 C   0  0  0  0  0  0  0  0  0  0  0  0
    1.4297    0.0000    0.0000 C   0  0  0  0  0  0  0  0  0  0  0  0
    2.8594    0.0000    0.0000 Cl  0  0  0  0  0  0  0  0  0  0  0  0
    0.0000   -1.6499    0.0000 Cl  0  0  0  0  0  0  0  0  0  0  0  0
    0.7148   -0.4118    0.0000 C   0  0  0  0  0  0  0  0  0  0  0  0
  1  2  1  0  0  0  0
  2  3  2  0  0  0  0
  2  4  1  0  0  0  0
  3  5  1  0  0  0  0
  6  4  2  0  0  0  0
  4  7  1  0  0  0  0
  5  8  1  0  0  0  0
  5  9  2  0  0  0  0
  9  6  1  0  0  0  0
M  END
>  <Name>
Phenol, 2,5-dichloro-

>  <IGC50>
4.13

>  <CAS>
583-78-8

>  <SET>
ws

>  <Species>
Tetrahymena pyriformis

>  <Test duration>
48h

$$$$

  Mrv1808 07152009202D          

 11 11  0  0  0  0            999 V2000
    2.1751    0.4183    0.0000 C   0  0  0  0  0  0  0  0  0  0  0  0
    2.1751    1.2549    0.0000 C   0  0  0  0  0  0  0  0  0  0  0  0
    1.4640    0.0000    0.0000 C   0  0  0  0  0  0  0  0  0  0  0  0
    2.8862    0.0000    0.0000 Cl  0  0  0  0  0  0  0  0  0  0  0  0
    1.4640    1.6313    0.0000 C   0  0  0  0  0  0  0  0  0  0  0  0
    0.7529    0.4183    0.0000 C   0  0  0  0  0  0  0  0  0  0  0  0
    0.7529    1.2549    0.0000 C   0  0  0  0  0  0  0  0  0  0  0  0
    1.4640    2.4679    0.0000 N   0  0  0  0  0  0  0  0  0  0  0  0
    0.0000    0.0000    0.0000 Cl  0  0  0  0  0  0  0  0  0  0  0  0
    2.1751    2.8862    0.0000 O   0  0  0  0  0  0  0  0  0  0  0  0
    0.7529    2.8862    0.0000 O   0  0  0  0  0  0  0  0  0  0  0  0
  2  1  2  0  0  0  0
  1  3  1  0  0  0  0
  1  4  1  0  0  0  0
  5  2  1  0  0  0  0
  3  6  2  0  0  0  0
  7  5  2  0  0  0  0
  5  8  1  0  0  0  0
  6  7  1  0  0  0  0
  6  9  1  0  0  0  0
  8 10  2  0  0  0  0
  8 11  2  0  0  0  0
M  END
>  <Name>
Benzene, 1,3-dichloro-5-nitro-

>  <IGC50>
4.13

>  <CAS>
618-62-2

>  <SET>
ws

>  <Species>
Tetrahymena pyriformis

>  <Test duration>
48h

$$$$

  Mrv1808 07152009203D          

  9  9  0  0  0  0            999 V2000
    2.0343   -1.8843    0.0001 Cl  0  0  0  0  0  0  0  0  0  0  0  0
    0.7736   -0.7119    0.0000 C   0  0  0  0  0  0  0  0  0  0  0  0
   -0.5583   -1.1265    0.0002 C   0  0  0  0  0  0  0  0  0  0  0  0
    1.0805    0.6488   -0.0001 C   0  0  0  0  0  0  0  0  0  0  0  0
   -1.5831   -0.1801    0.0004 C   0  0  0  0  0  0  0  0  0  0  0  0
    2.3560    1.0623   -0.0003 F   0  0  0  0  0  0  0  0  0  0  0  0
    0.0558    1.5951    0.0001 C   0  0  0  0  0  0  0  0  0  0  0  0
   -2.8828   -0.5840   -0.0006 O   0  0  0  0  0  0  0  0  0  0  0  0
   -1.2760    1.1806    0.0003 C   0  0  0  0  0  0  0  0  0  0  0  0
  1  2  1  0  0  0  0
  3  2  1  0  0  0  0
  2  4  2  0  0  0  0
  5  3  2  0  0  0  0
  6  4  1  0  0  0  0
  4  7  1  0  0  0  0
  8  5  1  0  0  0  0
  5  9  1  0  0  0  0
  9  7  2  0  0  0  0
M  END
>  <Name>
3-chloro-4-fluorophenol

>  <IGC50>
4.13

>  <CAS>
2613-23-2

>  <SET>
ws

>  <Species>
Tetrahymena pyriformis

>  <Test duration>
48h

$$$$

  Mrv1808 07152009202D          

 11 10  0  0  0  0            999 V2000
    0.0000    2.0913    0.0000 C   0  0  0  0  0  0  0  0  0  0  0  0
    0.7110    2.5096    0.0000 C   0  0  0  0  0  0  0  0  0  0  0  0
    1.4221    2.0913    0.0000 C   0  0  0  0  0  0  0  0  0  0  0  0
    2.1332    2.5096    0.0000 C   0  0  0  0  0  0  0  0  0  0  0  0
    2.8442    2.0913    0.0000 C   0  0  0  0  0  0  0  0  0  0  0  0
    3.5971    2.5096    0.0000 C   0  0  0  0  0  0  0  0  0  0  0  0
    4.3081    2.0913    0.0000 C   0  0  0  0  0  0  0  0  0  0  0  0
    5.0192    1.6731    0.0000 C   0  0  0  0  0  0  0  0  0  0  0  0
    5.7721    1.2548    0.0000 C   0  0  0  0  0  0  0  0  0  0  0  0
    5.7721    0.4183    0.0000 C   0  0  0  0  0  0  0  0  0  0  0  0
    6.4831    0.0000    0.0000 O   0  0  0  0  0  0  0  0  0  0  0  0
  1  2  1  0  0  0  0
  2  3  1  0  0  0  0
  3  4  1  0  0  0  0
  4  5  1  0  0  0  0
  5  6  1  0  0  0  0
  6  7  1  0  0  0  0
  7  8  3  0  0  0  0
  8  9  1  0  0  0  0
  9 10  1  0  0  0  0
 10 11  1  0  0  0  0
M  END
>  <Name>
3-Decyn-1-ol

>  <IGC50>
4.127

>  <CAS>
51721-39-2

>  <SET>
ws

>  <Species>
Tetrahymena pyriformis

>  <Test duration>
48h

$$$$

  Mrv1808 07152009203D          

 13 14  0  0  0  0            999 V2000
    2.1477    4.6098    0.8653 C   0  0  0  0  0  0  0  0  0  0  0  0
    2.7652    5.8287    0.8652 C   0  0  0  0  0  0  0  0  0  0  0  0
    2.9082    3.4067    0.8650 C   0  0  0  0  0  0  0  0  0  0  0  0
    4.1776    5.9098    0.8648 C   0  0  0  0  0  0  0  0  0  0  0  0
    4.3194    3.4846    0.8657 C   0  0  0  0  0  0  0  0  0  0  0  0
    2.2707    2.1308    0.8645 C   0  0  0  0  0  0  0  0  0  0  0  0
    4.9309    4.7696    0.8650 C   0  0  0  0  0  0  0  0  0  0  0  0
    5.0894    2.2841    0.8674 C   0  0  0  0  0  0  0  0  0  0  0  0
    3.0424    0.9896    0.8648 C   0  0  0  0  0  0  0  0  0  0  0  0
    0.7955    1.9686    0.8628 C   0  0  0  0  0  0  0  0  0  0  0  0
    4.4465    1.0664    0.8664 C   0  0  0  0  0  0  0  0  0  0  0  0
    6.5761    2.3120    0.8718 C   0  0  0  0  0  0  0  0  0  0  0  0
    0.0000    2.8843    0.8637 O   0  0  0  0  0  0  0  0  0  0  0  0
  1  2  2  0  0  0  0
  3  1  1  0  0  0  0
  2  4  1  0  0  0  0
  3  5  2  0  0  0  0
  6  3  1  0  0  0  0
  4  7  2  0  0  0  0
  7  5  1  0  0  0  0
  5  8  1  0  0  0  0
  9  6  2  0  0  0  0
  6 10  1  0  0  0  0
  8 11  2  0  0  0  0
  8 12  1  0  0  0  0
 11  9  1  0  0  0  0
 10 13  2  0  0  0  0
M  END
>  <Name>
1-Naphthalenecarboxaldehyde, 4-methyl-

>  <IGC50>
4.123

>  <CAS>
33738-48-6

>  <SET>
ws

>  <Species>
Tetrahymena pyriformis

>  <Test duration>
48h

$$$$

  Mrv1808 07152009202D          

 11 11  0  0  0  0            999 V2000
    2.1039    0.4125    0.0000 C   0  0  0  0  0  0  0  0  0  0  0  0
    2.1039    1.2375    0.0000 C   0  0  0  0  0  0  0  0  0  0  0  0
    1.4438    0.0413    0.0000 C   0  0  0  0  0  0  0  0  0  0  0  0
    1.4438    1.6501    0.0000 C   0  0  0  0  0  0  0  0  0  0  0  0
    2.8052    1.6501    0.0000 N   0  0  0  0  0  0  0  0  0  0  0  0
    0.7013    0.4538    0.0000 C   0  0  0  0  0  0  0  0  0  0  0  0
    0.7013    1.2375    0.0000 C   0  0  0  0  0  0  0  0  0  0  0  0
    1.4438    2.4339    0.0000 O   0  0  0  0  0  0  0  0  0  0  0  0
    3.5477    1.2375    0.0000 O   0  0  0  0  0  0  0  0  0  0  0  0
    2.8052    2.4752    0.0000 O   0  0  0  0  0  0  0  0  0  0  0  0
    0.0000    0.0000    0.0000 F   0  0  0  0  0  0  0  0  0  0  0  0
  2  1  2  0  0  0  0
  1  3  1  0  0  0  0
  4  2  1  0  0  0  0
  2  5  1  0  0  0  0
  3  6  2  0  0  0  0
  7  4  2  0  0  0  0
  4  8  1  0  0  0  0
  5  9  2  0  0  0  0
  5 10  2  0  0  0  0
  6  7  1  0  0  0  0
  6 11  1  0  0  0  0
M  END
>  <Name>
5-Fluoro-2-nitrophenol

>  <IGC50>
4.12

>  <CAS>
446-36-6

>  <SET>
ws

>  <Species>
Tetrahymena pyriformis

>  <Test duration>
48h

$$$$

  Mrv1808 07152009203D          

  8  8  0  0  0  0            999 V2000
    3.0976   -0.8962    0.0000 I   0  0  0  0  0  0  0  0  0  0  0  0
    1.1638   -0.1366   -0.0001 C   0  0  0  0  0  0  0  0  0  0  0  0
    0.0729   -1.0061    0.0001 C   0  0  0  0  0  0  0  0  0  0  0  0
    0.9561    1.2428   -0.0002 C   0  0  0  0  0  0  0  0  0  0  0  0
   -1.2254   -0.4961    0.0002 C   0  0  0  0  0  0  0  0  0  0  0  0
   -0.3422    1.7528    0.0000 C   0  0  0  0  0  0  0  0  0  0  0  0
   -2.2901   -1.3439   -0.0003 O   0  0  0  0  0  0  0  0  0  0  0  0
   -1.4328    0.8834    0.0001 C   0  0  0  0  0  0  0  0  0  0  0  0
  1  2  1  0  0  0  0
  3  2  1  0  0  0  0
  2  4  2  0  0  0  0
  5  3  2  0  0  0  0
  6  4  1  0  0  0  0
  7  5  1  0  0  0  0
  5  8  1  0  0  0  0
  8  6  2  0  0  0  0
M  END
>  <Name>
3-iodophenol

>  <IGC50>
4.12

>  <CAS>
626-02-8

>  <SET>
ws

>  <Species>
Tetrahymena pyriformis

>  <Test duration>
48h

$$$$

  Mrv1808 07152009202D          

 14 14  0  0  0  0            999 V2000
    0.0412    2.8460    0.0000 O   0  0  0  0  0  0  0  0  0  0  0  0
    0.4125    2.1448    0.0000 N   0  0  0  0  0  0  0  0  0  0  0  0
    0.0000    1.4024    0.0000 O   0  0  0  0  0  0  0  0  0  0  0  0
    1.2787    2.1448    0.0000 C   0  0  0  0  0  0  0  0  0  0  0  0
    1.6911    1.4024    0.0000 C   0  0  0  0  0  0  0  0  0  0  0  0
    1.6911    2.8460    0.0000 C   0  0  0  0  0  0  0  0  0  0  0  0
    2.5161    1.4024    0.0000 C   0  0  0  0  0  0  0  0  0  0  0  0
    1.2787    3.5473    0.0000 N   0  0  0  0  0  0  0  0  0  0  0  0
    2.5161    2.8460    0.0000 C   0  0  0  0  0  0  0  0  0  0  0  0
    2.8873    0.7012    0.0000 N   0  0  0  0  0  0  0  0  0  0  0  0
    2.9285    2.1448    0.0000 C   0  0  0  0  0  0  0  0  0  0  0  0
    2.9285    3.5473    0.0000 Cl  0  0  0  0  0  0  0  0  0  0  0  0
    2.4748    0.0000    0.0000 O   0  0  0  0  0  0  0  0  0  0  0  0
    3.7535    0.7012    0.0000 O   0  0  0  0  0  0  0  0  0  0  0  0
  1  2  2  0  0  0  0
  2  3  2  0  0  0  0
  2  4  1  0  0  0  0
  4  5  2  0  0  0  0
  6  4  1  0  0  0  0
  5  7  1  0  0  0  0
  6  8  1  0  0  0  0
  9  6  2  0  0  0  0
  7 10  1  0  0  0  0
  7 11  2  0  0  0  0
 11  9  1  0  0  0  0
  9 12  1  0  0  0  0
 10 13  2  0  0  0  0
 10 14  2  0  0  0  0
M  END
>  <Name>
Benzenamine, 2-chloro-4,6-dinitro-

>  <IGC50>
4.12

>  <CAS>
3531-19-9

>  <SET>
ws

>  <Species>
Tetrahymena pyriformis

>  <Test duration>
48h

$$$$

  Mrv1808 07152009202D          

 10 10  0  0  0  0            999 V2000
    0.0000   -1.4266    0.0000 O   0  0  0  0  0  0  0  0  0  0  0  0
    0.4113   -0.7152    0.0000 N   0  3  0  0  0  0  0  0  0  0  0  0
    1.2339   -0.7152    0.0000 C   0  0  0  0  0  0  0  0  0  0  0  0
    0.0000    0.0000    0.0000 O   0  5  0  0  0  0  0  0  0  0  0  0
    1.6452    0.0000    0.0000 C   0  0  0  0  0  0  0  0  0  0  0  0
    1.6452   -1.4266    0.0000 C   0  0  0  0  0  0  0  0  0  0  0  0
    2.4715    0.0000    0.0000 C   0  0  0  0  0  0  0  0  0  0  0  0
    2.4715   -1.4266    0.0000 C   0  0  0  0  0  0  0  0  0  0  0  0
    2.8829   -0.7152    0.0000 C   0  0  0  0  0  0  0  0  0  0  0  0
    3.7054   -0.7152    0.0000 N   0  0  0  0  0  0  0  0  0  0  0  0
  1  2  2  0  0  0  0
  2  3  1  0  0  0  0
  2  4  1  0  0  0  0
  3  5  2  0  0  0  0
  3  6  1  0  0  0  0
  5  7  1  0  0  0  0
  8  6  2  0  0  0  0
  7  9  2  0  0  0  0
  9  8  1  0  0  0  0
  9 10  1  0  0  0  0
M  CHG  2   2   1   4  -1
M  END
>  <Name>
Benzenamine, 4-nitro-

>  <IGC50>
4.12

>  <CAS>
100-01-6

>  <SET>
ws

>  <Species>
Tetrahymena pyriformis

>  <Test duration>
48h

$$$$

  Mrv1808 07152009203D          

 14 15  0  0  0  0            999 V2000
   -3.4889    0.5447   -0.0031 O   0  5  0  0  0  0  0  0  0  0  0  0
   -2.4958   -0.2175   -0.0006 N   0  3  0  0  0  0  0  0  0  0  0  0
   -2.6047   -1.4646   -0.0010 O   0  0  0  0  0  0  0  0  0  0  0  0
   -1.1906    0.3569    0.0023 C   0  0  0  0  0  0  0  0  0  0  0  0
   -0.0284   -0.4316    0.0013 C   0  0  0  0  0  0  0  0  0  0  0  0
   -1.1058    1.7495    0.0022 C   0  0  0  0  0  0  0  0  0  0  0  0
    1.2374    0.2014    0.0003 C   0  0  0  0  0  0  0  0  0  0  0  0
   -0.0948   -1.8344    0.0012 C   0  0  0  0  0  0  0  0  0  0  0  0
    0.1389    2.3720    0.0012 C   0  0  0  0  0  0  0  0  0  0  0  0
    1.3038    1.6042    0.0002 C   0  0  0  0  0  0  0  0  0  0  0  0
    2.3996   -0.5871   -0.0008 C   0  0  0  0  0  0  0  0  0  0  0  0
    1.0701   -2.6022    0.0002 C   0  0  0  0  0  0  0  0  0  0  0  0
    2.5443    2.2883   -0.0028 N   0  0  0  0  0  0  0  0  0  0  0  0
    2.3149   -1.9797   -0.0007 C   0  0  0  0  0  0  0  0  0  0  0  0
  1  2  1  0  0  0  0
  3  2  2  0  0  0  0
  2  4  1  0  0  0  0
  5  4  1  0  0  0  0
  4  6  2  0  0  0  0
  5  7  1  0  0  0  0
  5  8  2  0  0  0  0
  6  9  1  0  0  0  0
  7 10  1  0  0  0  0
  7 11  2  0  0  0  0
  8 12  1  0  0  0  0
 10  9  2  0  0  0  0
 13 10  1  0  0  0  0
 11 14  1  0  0  0  0
 12 14  2  0  0  0  0
M  CHG  2   1  -1   2   1
M  END
>  <Name>
4-nitronaphthalen-1-amine

>  <IGC50>
4.12

>  <CAS>
776-34-1

>  <SET>
ws

>  <Species>
Tetrahymena pyriformis

>  <Test duration>
48h

$$$$

  Mrv1808 07152009202D          

 16 17  0  0  0  0            999 V2000
    2.4506    0.7476    0.0000 C   0  0  0  0  0  0  0  0  0  0  0  0
    2.9076    1.4537    0.0000 O   0  0  0  0  0  0  0  0  0  0  0  0
    2.8660    0.0000    0.0000 O   0  0  0  0  0  0  0  0  0  0  0  0
    1.6615    0.7476    0.0000 C   0  0  0  0  0  0  0  0  0  0  0  0
    3.7383    1.4537    0.0000 C   0  0  0  0  0  0  0  0  0  0  0  0
    1.2461    1.4537    0.0000 C   0  0  0  0  0  0  0  0  0  0  0  0
    1.2461    0.0000    0.0000 C   0  0  0  0  0  0  0  0  0  0  0  0
    4.1537    2.1599    0.0000 C   0  0  0  0  0  0  0  0  0  0  0  0
    4.1537    0.7476    0.0000 C   0  0  0  0  0  0  0  0  0  0  0  0
    0.4154    1.4537    0.0000 C   0  0  0  0  0  0  0  0  0  0  0  0
    0.4154    0.0000    0.0000 C   0  0  0  0  0  0  0  0  0  0  0  0
    4.9844    2.1599    0.0000 C   0  0  0  0  0  0  0  0  0  0  0  0
    4.9844    0.7476    0.0000 C   0  0  0  0  0  0  0  0  0  0  0  0
    0.0000    0.7476    0.0000 C   0  0  0  0  0  0  0  0  0  0  0  0
    5.3998    2.9076    0.0000 O   0  0  0  0  0  0  0  0  0  0  0  0
    5.3998    1.4537    0.0000 C   0  0  0  0  0  0  0  0  0  0  0  0
  1  2  1  0  0  0  0
  1  3  2  0  0  0  0
  1  4  1  0  0  0  0
  2  5  1  0  0  0  0
  4  6  2  0  0  0  0
  7  4  1  0  0  0  0
  8  5  2  0  0  0  0
  5  9  1  0  0  0  0
  6 10  1  0  0  0  0
 11  7  2  0  0  0  0
 12  8  1  0  0  0  0
  9 13  2  0  0  0  0
 10 14  2  0  0  0  0
 14 11  1  0  0  0  0
 12 15  1  0  0  0  0
 16 12  2  0  0  0  0
 13 16  1  0  0  0  0
M  END
>  <Name>
1,3-Benzenediol, monobenzoate

>  <IGC50>
4.11

>  <CAS>
136-36-7

>  <SET>
ws

>  <Species>
Tetrahymena pyriformis

>  <Test duration>
48h

$$$$

  Mrv1808 07152009202D          

 10 10  0  0  0  0            999 V2000
    1.4286   -1.2393    0.0000 C   0  0  0  0  0  0  0  0  0  0  0  0
    0.7143   -1.6500    0.0000 C   0  0  0  0  0  0  0  0  0  0  0  0
    1.4286   -0.4143    0.0000 C   0  0  0  0  0  0  0  0  0  0  0  0
    2.1428   -1.6500    0.0000 C   0  0  0  0  0  0  0  0  0  0  0  0
    0.0000   -1.2393    0.0000 O   0  0  0  0  0  0  0  0  0  0  0  0
    0.7143    0.0000    0.0000 O   0  0  0  0  0  0  0  0  0  0  0  0
    2.1428    0.0000    0.0000 C   0  0  0  0  0  0  0  0  0  0  0  0
    2.8571   -1.2393    0.0000 C   0  0  0  0  0  0  0  0  0  0  0  0
    2.8571   -0.4143    0.0000 C   0  0  0  0  0  0  0  0  0  0  0  0
    3.5714   -1.6500    0.0000 Br  0  0  0  0  0  0  0  0  0  0  0  0
  1  2  1  0  0  0  0
  1  3  2  0  0  0  0
  1  4  1  0  0  0  0
  2  5  2  0  0  0  0
  3  6  1  0  0  0  0
  3  7  1  0  0  0  0
  8  4  2  0  0  0  0
  7  9  2  0  0  0  0
  9  8  1  0  0  0  0
  8 10  1  0  0  0  0
M  END
>  <Name>
Benzaldehyde, 5-bromo-2-hydroxy-

>  <IGC50>
4.107

>  <CAS>
1761-61-1

>  <SET>
ws

>  <Species>
Tetrahymena pyriformis

>  <Test duration>
48h

$$$$

  Mrv1808 07152009202D          

 15 15  0  0  0  0            999 V2000
    2.8861    1.2548    0.0000 C   0  0  0  0  0  0  0  0  0  0  0  0
    2.1750    1.6731    0.0000 C   0  0  0  0  0  0  0  0  0  0  0  0
    3.5971    1.6731    0.0000 O   0  0  0  0  0  0  0  0  0  0  0  0
    1.4640    1.2548    0.0000 C   0  0  0  0  0  0  0  0  0  0  0  0
    4.3500    1.2548    0.0000 C   0  0  0  0  0  0  0  0  0  0  0  0
    0.7111    1.6313    0.0000 C   0  0  0  0  0  0  0  0  0  0  0  0
    1.4640    0.4183    0.0000 C   0  0  0  0  0  0  0  0  0  0  0  0
    5.0611    1.6731    0.0000 C   0  0  0  0  0  0  0  0  0  0  0  0
    4.3500    0.4601    0.0000 O   0  0  0  0  0  0  0  0  0  0  0  0
    0.0000    1.2130    0.0000 C   0  0  0  0  0  0  0  0  0  0  0  0
    0.7111    0.0000    0.0000 C   0  0  0  0  0  0  0  0  0  0  0  0
    5.8140    1.2548    0.0000 C   0  0  0  0  0  0  0  0  0  0  0  0
    0.0000    0.3764    0.0000 C   0  0  0  0  0  0  0  0  0  0  0  0
    5.8140    0.4601    0.0000 C   0  0  0  0  0  0  0  0  0  0  0  0
    6.5250    1.7149    0.0000 C   0  0  0  0  0  0  0  0  0  0  0  0
  1  2  1  0  0  0  0
  1  3  1  0  0  0  0
  2  4  1  0  0  0  0
  3  5  1  0  0  0  0
  6  4  2  0  0  0  0
  4  7  1  0  0  0  0
  5  8  1  0  0  0  0
  5  9  2  0  0  0  0
 10  6  1  0  0  0  0
  7 11  2  0  0  0  0
  8 12  1  0  0  0  0
 13 10  2  0  0  0  0
 11 13  1  0  0  0  0
 12 14  1  0  0  0  0
 12 15  1  0  0  0  0
M  END
>  <Name>
Butanoic acid, 3-methyl-, 2-phenylethyl ester

>  <IGC50>
4.1

>  <CAS>
140-26-1

>  <SET>
ws

>  <Species>
Tetrahymena pyriformis

>  <Test duration>
48h

$$$$

  Mrv1808 07152009202D          

 12 11  0  0  0  0            999 V2000
    0.0000   -1.2427    0.0000 C   0  0  0  0  0  0  0  0  0  0  0  0
    0.7147   -0.8306    0.0000 C   0  0  0  0  0  0  0  0  0  0  0  0
    1.4294   -1.2427    0.0000 C   0  0  0  0  0  0  0  0  0  0  0  0
    2.1441   -0.8306    0.0000 C   0  0  0  0  0  0  0  0  0  0  0  0
    2.8588   -1.2427    0.0000 C   0  0  0  0  0  0  0  0  0  0  0  0
    3.5799   -0.8306    0.0000 C   0  0  0  0  0  0  0  0  0  0  0  0
    4.2946   -1.2427    0.0000 O   0  0  0  0  0  0  0  0  0  0  0  0
    5.0093   -0.8306    0.0000 C   0  0  0  0  0  0  0  0  0  0  0  0
    5.0093    0.0000    0.0000 O   0  0  0  0  0  0  0  0  0  0  0  0
    5.7240   -1.2427    0.0000 C   0  0  0  0  0  0  0  0  0  0  0  0
    6.4387   -0.8306    0.0000 C   0  0  0  0  0  0  0  0  0  0  0  0
    5.7240   -2.0668    0.0000 C   0  0  0  0  0  0  0  0  0  0  0  0
  1  2  1  0  0  0  0
  2  3  1  0  0  0  0
  3  4  1  0  0  0  0
  4  5  1  0  0  0  0
  5  6  1  0  0  0  0
  6  7  1  0  0  0  0
  7  8  1  0  0  0  0
  8  9  2  0  0  0  0
  8 10  1  0  0  0  0
 10 11  1  0  0  0  0
 10 12  2  0  0  0  0
M  END
>  <Name>
Methacrylic acid, hexyl ester (8CI)

>  <IGC50>
4.09

>  <CAS>
142-09-6

>  <SET>
ws

>  <Species>
Tetrahymena pyriformis

>  <Test duration>
48h

$$$$

  Mrv1808 07152009202D          

 11 10  0  0  0  0            999 V2000
    0.0000   -0.4139    0.0000 C   0  0  0  0  0  0  0  0  0  0  0  0
    0.7136    0.0000    0.0000 C   0  0  0  0  0  0  0  0  0  0  0  0
    1.4273   -0.4139    0.0000 C   0  0  0  0  0  0  0  0  0  0  0  0
    2.1409    0.0000    0.0000 C   0  0  0  0  0  0  0  0  0  0  0  0
    2.8546   -0.4139    0.0000 C   0  0  0  0  0  0  0  0  0  0  0  0
    3.5682    0.0000    0.0000 O   0  0  0  0  0  0  0  0  0  0  0  0
    4.2818   -0.4139    0.0000 C   0  0  0  0  0  0  0  0  0  0  0  0
    4.9955    0.0000    0.0000 C   0  0  0  0  0  0  0  0  0  0  0  0
    5.7091   -0.4139    0.0000 C   0  0  0  0  0  0  0  0  0  0  0  0
    6.4228    0.0000    0.0000 C   0  0  0  0  0  0  0  0  0  0  0  0
    7.1364   -0.4139    0.0000 C   0  0  0  0  0  0  0  0  0  0  0  0
  1  2  1  0  0  0  0
  2  3  1  0  0  0  0
  3  4  1  0  0  0  0
  4  5  1  0  0  0  0
  5  6  1  0  0  0  0
  6  7  1  0  0  0  0
  7  8  1  0  0  0  0
  8  9  1  0  0  0  0
  9 10  1  0  0  0  0
 10 11  1  0  0  0  0
M  END
>  <Name>
Pentane, 1,1'-oxybis-

>  <IGC50>
4.09

>  <CAS>
693-65-2

>  <SET>
ws

>  <Species>
Tetrahymena pyriformis

>  <Test duration>
48h

$$$$

  Mrv1808 07152009202D          

 11 11  0  0  0  0            999 V2000
    2.9527    1.3027    0.0000 C   0  0  0  0  0  0  0  0  0  0  0  0
    2.9527    2.1277    0.0000 C   0  0  0  0  0  0  0  0  0  0  0  0
    2.2145    0.8684    0.0000 C   0  0  0  0  0  0  0  0  0  0  0  0
    3.7343    0.8684    0.0000 I   0  0  0  0  0  0  0  0  0  0  0  0
    2.2145    2.5618    0.0000 C   0  0  0  0  0  0  0  0  0  0  0  0
    1.5198    1.3027    0.0000 C   0  0  0  0  0  0  0  0  0  0  0  0
    1.5198    2.1277    0.0000 C   0  0  0  0  0  0  0  0  0  0  0  0
    2.2145    3.4302    0.0000 F   0  0  0  0  0  0  0  0  0  0  0  0
    0.7382    0.8684    0.0000 N   0  0  0  0  0  0  0  0  0  0  0  0
    0.0000    1.3027    0.0000 O   0  0  0  0  0  0  0  0  0  0  0  0
    0.7382    0.0000    0.0000 O   0  0  0  0  0  0  0  0  0  0  0  0
  2  1  2  0  0  0  0
  1  3  1  0  0  0  0
  1  4  1  0  0  0  0
  5  2  1  0  0  0  0
  3  6  2  0  0  0  0
  7  5  2  0  0  0  0
  5  8  1  0  0  0  0
  6  7  1  0  0  0  0
  6  9  1  0  0  0  0
  9 10  2  0  0  0  0
  9 11  2  0  0  0  0
M  END
>  <Name>
3-Nitro-5-fluoro-1-iodobenzene

>  <IGC50>
4.09

>  <CAS>
3819-88-3

>  <SET>
ws

>  <Species>
Tetrahymena pyriformis

>  <Test duration>
48h

$$$$

  Mrv1808 07152009202D          

 13 14  0  0  0  0            999 V2000
    1.6514    0.0000    0.0000 O   0  0  0  0  0  0  0  0  0  0  0  0
    1.2385   -0.7184    0.0000 C   0  0  0  0  0  0  0  0  0  0  0  0
    1.6514   -1.4326    0.0000 C   0  0  0  0  0  0  0  0  0  0  0  0
    0.4129   -0.7184    0.0000 C   0  0  0  0  0  0  0  0  0  0  0  0
    1.2385   -2.1468    0.0000 C   0  0  0  0  0  0  0  0  0  0  0  0
    2.4771   -1.4326    0.0000 C   0  0  0  0  0  0  0  0  0  0  0  0
    0.0000   -1.4326    0.0000 C   0  0  0  0  0  0  0  0  0  0  0  0
    0.4129   -2.1468    0.0000 C   0  0  0  0  0  0  0  0  0  0  0  0
    2.8899   -0.7184    0.0000 C   0  0  0  0  0  0  0  0  0  0  0  0
    2.8899   -2.1468    0.0000 C   0  0  0  0  0  0  0  0  0  0  0  0
    3.7157   -0.7184    0.0000 C   0  0  0  0  0  0  0  0  0  0  0  0
    3.7157   -2.1468    0.0000 C   0  0  0  0  0  0  0  0  0  0  0  0
    4.1285   -1.4326    0.0000 C   0  0  0  0  0  0  0  0  0  0  0  0
  1  2  1  0  0  0  0
  2  3  2  0  0  0  0
  2  4  1  0  0  0  0
  3  5  1  0  0  0  0
  3  6  1  0  0  0  0
  7  4  2  0  0  0  0
  5  8  2  0  0  0  0
  6  9  2  0  0  0  0
  6 10  1  0  0  0  0
  8  7  1  0  0  0  0
  9 11  1  0  0  0  0
 12 10  2  0  0  0  0
 11 13  2  0  0  0  0
 13 12  1  0  0  0  0
M  END
>  <Name>
(1,1'-Biphenyl)-2-ol

>  <IGC50>
4.09

>  <CAS>
90-43-7

>  <SET>
ws

>  <Species>
Tetrahymena pyriformis

>  <Test duration>
48h

$$$$

  Mrv1808 07152009202D          

 14 14  0  0  0  0            999 V2000
    2.5617    1.5196    0.0000 C   0  0  0  0  0  0  0  0  0  0  0  0
    1.7367    1.5196    0.0000 C   0  0  0  0  0  0  0  0  0  0  0  0
    2.9959    2.2143    0.0000 C   0  0  0  0  0  0  0  0  0  0  0  0
    2.9959    0.7381    0.0000 N   0  0  0  0  0  0  0  0  0  0  0  0
    1.3025    2.2143    0.0000 C   0  0  0  0  0  0  0  0  0  0  0  0
    2.5617    2.9959    0.0000 C   0  0  0  0  0  0  0  0  0  0  0  0
    3.8208    2.2143    0.0000 N   0  0  0  0  0  0  0  0  0  0  0  0
    3.8208    0.7381    0.0000 O   0  0  0  0  0  0  0  0  0  0  0  0
    2.5617    0.0000    0.0000 O   0  0  0  0  0  0  0  0  0  0  0  0
    1.7367    2.9959    0.0000 C   0  0  0  0  0  0  0  0  0  0  0  0
    0.4342    2.2143    0.0000 C   0  0  0  0  0  0  0  0  0  0  0  0
    4.2984    2.9959    0.0000 O   0  0  0  0  0  0  0  0  0  0  0  0
    4.2984    1.5196    0.0000 O   0  0  0  0  0  0  0  0  0  0  0  0
    0.0000    1.5196    0.0000 O   0  0  0  0  0  0  0  0  0  0  0  0
  2  1  2  0  0  0  0
  1  3  1  0  0  0  0
  1  4  1  0  0  0  0
  5  2  1  0  0  0  0
  3  6  2  0  0  0  0
  3  7  1  0  0  0  0
  4  8  2  0  0  0  0
  4  9  2  0  0  0  0
 10  5  2  0  0  0  0
  5 11  1  0  0  0  0
  6 10  1  0  0  0  0
  7 12  2  0  0  0  0
  7 13  2  0  0  0  0
 11 14  1  0  0  0  0
M  END
>  <Name>
3,4-Dinitrobenzyl alcohol

>  <IGC50>
4.09

>  <CAS>
79544-31-3

>  <SET>
ws

>  <Species>
Tetrahymena pyriformis

>  <Test duration>
48h

$$$$

  Mrv1808 07152009202D          

 11 12  0  0  0  0            999 V2000
    1.4155   -0.4064    0.0000 C   0  0  0  0  0  0  0  0  0  0  0  0
    0.7095    0.0000    0.0000 C   0  0  0  0  0  0  0  0  0  0  0  0
    2.1357    0.0000    0.0000 C   0  0  0  0  0  0  0  0  0  0  0  0
    1.4155   -1.2443    0.0000 C   0  0  0  0  0  0  0  0  0  0  0  0
    0.0000   -0.4064    0.0000 C   0  0  0  0  0  0  0  0  0  0  0  0
    2.8451   -0.4172    0.0000 C   0  0  0  0  0  0  0  0  0  0  0  0
    0.7095   -1.6507    0.0000 C   0  0  0  0  0  0  0  0  0  0  0  0
    2.1357   -1.6507    0.0000 C   0  0  0  0  0  0  0  0  0  0  0  0
    0.0000   -1.2443    0.0000 C   0  0  0  0  0  0  0  0  0  0  0  0
    2.8451   -1.2443    0.0000 C   0  0  0  0  0  0  0  0  0  0  0  0
    3.5653    0.0000    0.0000 C   0  0  0  0  0  0  0  0  0  0  0  0
  1  2  2  0  0  0  0
  1  3  1  0  0  0  0
  1  4  1  0  0  0  0
  2  5  1  0  0  0  0
  3  6  2  0  0  0  0
  4  7  2  0  0  0  0
  4  8  1  0  0  0  0
  5  9  2  0  0  0  0
  6 10  1  0  0  0  0
  6 11  1  0  0  0  0
  7  9  1  0  0  0  0
  8 10  2  0  0  0  0
M  END
>  <Name>
Naphthalene, 2-methyl-

>  <IGC50>
4.08

>  <CAS>
91-57-6

>  <SET>
ws

>  <Species>
Tetrahymena pyriformis

>  <Test duration>
48h

$$$$

  Mrv1808 07152009203D          

 10 10  0  0  0  0            999 V2000
    1.7953   -0.9201    4.4041 Cl  0  0  0  0  0  0  0  0  0  0  0  0
    1.8509   -0.9767    2.6799 C   0  0  0  0  0  0  0  0  0  0  0  0
    2.9180   -1.5734    2.0082 C   0  0  0  0  0  0  0  0  0  0  0  0
    0.8008   -0.4105    1.9570 C   0  0  0  0  0  0  0  0  0  0  0  0
    4.0614   -2.1918    2.7457 C   0  0  0  0  0  0  0  0  0  0  0  0
    2.9348   -1.6038    0.6137 C   0  0  0  0  0  0  0  0  0  0  0  0
    0.8176   -0.4410    0.5626 C   0  0  0  0  0  0  0  0  0  0  0  0
    3.8222   -3.6673    3.0494 C   0  0  0  0  0  0  0  0  0  0  0  0
    1.8846   -1.0376   -0.1090 C   0  0  0  0  0  0  0  0  0  0  0  0
    1.9006   -1.0675   -1.4697 O   0  0  0  0  0  0  0  0  0  0  0  0
  1  2  1  0  0  0  0
  3  2  2  0  0  0  0
  2  4  1  0  0  0  0
  3  5  1  0  0  0  0
  3  6  1  0  0  0  0
  4  7  2  0  0  0  0
  5  8  1  0  0  0  0
  6  9  2  0  0  0  0
  9  7  1  0  0  0  0
 10  9  1  0  0  0  0
M  END
>  <Name>
4-Chloro-3-ethylphenol

>  <IGC50>
4.08

>  <CAS>
14143-32-9

>  <SET>
ws

>  <Species>
Tetrahymena pyriformis

>  <Test duration>
48h

$$$$

  Mrv1808 07152009202D          

  9  9  0  0  0  0            999 V2000
    2.8594    0.0000    0.0000 Cl  0  0  0  0  0  0  0  0  0  0  0  0
    2.1445   -0.4118    0.0000 C   0  0  0  0  0  0  0  0  0  0  0  0
    2.1445   -1.2381    0.0000 C   0  0  0  0  0  0  0  0  0  0  0  0
    1.4297    0.0000    0.0000 C   0  0  0  0  0  0  0  0  0  0  0  0
    2.8594   -1.6499    0.0000 Cl  0  0  0  0  0  0  0  0  0  0  0  0
    1.4297   -1.6499    0.0000 C   0  0  0  0  0  0  0  0  0  0  0  0
    0.7148   -0.4118    0.0000 C   0  0  0  0  0  0  0  0  0  0  0  0
    0.7148   -1.2381    0.0000 C   0  0  0  0  0  0  0  0  0  0  0  0
    0.0000   -1.6499    0.0000 Cl  0  0  0  0  0  0  0  0  0  0  0  0
  1  2  1  0  0  0  0
  2  3  2  0  0  0  0
  2  4  1  0  0  0  0
  3  5  1  0  0  0  0
  3  6  1  0  0  0  0
  7  4  2  0  0  0  0
  6  8  2  0  0  0  0
  8  7  1  0  0  0  0
  8  9  1  0  0  0  0
M  END
>  <Name>
Benzene, 1,2,4-trichloro-

>  <IGC50>
4.08

>  <CAS>
120-82-1

>  <SET>
ws

>  <Species>
Tetrahymena pyriformis

>  <Test duration>
48h

$$$$

  Mrv1808 07152009203D          

 14 16  0  0  0  0            999 V2000
   -0.5465    3.9027    2.9492 N   0  0  0  0  0  0  0  0  0  0  0  0
   -1.4663    2.9541    3.2394 C   0  0  0  0  0  0  0  0  0  0  0  0
   -0.5387    5.0543    3.6585 C   0  0  0  0  0  0  0  0  0  0  0  0
   -1.5195    1.7326    2.5303 C   0  0  0  0  0  0  0  0  0  0  0  0
   -2.4041    3.1655    4.2693 C   0  0  0  0  0  0  0  0  0  0  0  0
   -1.4201    5.3362    4.6783 C   0  0  0  0  0  0  0  0  0  0  0  0
   -2.4817    0.7423    2.8361 C   0  0  0  0  0  0  0  0  0  0  0  0
   -0.6218    1.4362    1.4867 C   0  0  0  0  0  0  0  0  0  0  0  0
   -3.3543    2.1858    4.5700 C   0  0  0  0  0  0  0  0  0  0  0  0
   -2.3663    4.3714    4.9839 C   0  0  0  0  0  0  0  0  0  0  0  0
   -2.5535   -0.4291    2.1769 N   0  0  0  0  0  0  0  0  0  0  0  0
   -3.3844    0.9919    3.8559 C   0  0  0  0  0  0  0  0  0  0  0  0
   -0.6904    0.2296    0.8029 C   0  0  0  0  0  0  0  0  0  0  0  0
   -1.6681   -0.6622    1.1843 C   0  0  0  0  0  0  0  0  0  0  0  0
  1  2  1  0  0  0  0
  1  3  2  0  0  0  0
  4  2  1  0  0  0  0
  2  5  2  0  0  0  0
  6  3  1  0  0  0  0
  4  7  2  0  0  0  0
  4  8  1  0  0  0  0
  5  9  1  0  0  0  0
  5 10  1  0  0  0  0
 10  6  2  0  0  0  0
 11  7  1  0  0  0  0
  7 12  1  0  0  0  0
  8 13  2  0  0  0  0
  9 12  2  0  0  0  0
 11 14  2  0  0  0  0
 13 14  1  0  0  0  0
M  END
>  <Name>
1,7-Phenanthroline

>  <IGC50>
4.07

>  <CAS>
230-46-6

>  <SET>
ws

>  <Species>
Tetrahymena pyriformis

>  <Test duration>
48h

$$$$

  Mrv1808 07152009203D          

 11 11  0  0  0  0            999 V2000
   -2.1506    1.8723   -0.0001 F   0  0  0  0  0  0  0  0  0  0  0  0
   -1.3290    0.8136    0.0004 C   0  0  0  0  0  0  0  0  0  0  0  0
    0.0520    1.0098   -0.0002 C   0  0  0  0  0  0  0  0  0  0  0  0
   -1.8496   -0.4804    0.0005 C   0  0  0  0  0  0  0  0  0  0  0  0
    0.9124   -0.0881   -0.0007 C   0  0  0  0  0  0  0  0  0  0  0  0
   -3.1966   -0.6732    0.0000 O   0  0  0  0  0  0  0  0  0  0  0  0
   -0.9892   -1.5783   -0.0001 C   0  0  0  0  0  0  0  0  0  0  0  0
    2.3181    0.1118    0.0002 N   0  3  0  0  0  0  0  0  0  0  0  0
    0.3919   -1.3822   -0.0007 C   0  0  0  0  0  0  0  0  0  0  0  0
    3.0747   -0.8894    0.0008 O   0  5  0  0  0  0  0  0  0  0  0  0
    2.7658    1.2840   -0.0002 O   0  0  0  0  0  0  0  0  0  0  0  0
  1  2  1  0  0  0  0
  3  2  1  0  0  0  0
  4  2  2  0  0  0  0
  5  3  2  0  0  0  0
  6  4  1  0  0  0  0
  4  7  1  0  0  0  0
  8  5  1  0  0  0  0
  5  9  1  0  0  0  0
  9  7  2  0  0  0  0
 10  8  1  0  0  0  0
 11  8  2  0  0  0  0
M  CHG  2   8   1  10  -1
M  END
>  <Name>
2-fluoro-4-nitrophenol

>  <IGC50>
4.07

>  <CAS>
403-19-0

>  <SET>
ws

>  <Species>
Tetrahymena pyriformis

>  <Test duration>
48h

$$$$

  Mrv1808 07152009202D          

 16 17  0  0  0  0            999 V2000
    2.1750    0.4183    0.0000 C   0  0  0  0  0  0  0  0  0  0  0  0
    2.1750    1.2130    0.0000 C   0  0  0  0  0  0  0  0  0  0  0  0
    1.4640    0.0000    0.0000 C   0  0  0  0  0  0  0  0  0  0  0  0
    1.4640    1.6313    0.0000 C   0  0  0  0  0  0  0  0  0  0  0  0
    2.8861    1.6731    0.0000 C   0  0  0  0  0  0  0  0  0  0  0  0
    0.7529    0.4183    0.0000 C   0  0  0  0  0  0  0  0  0  0  0  0
    0.7529    1.2130    0.0000 C   0  0  0  0  0  0  0  0  0  0  0  0
    2.8861    2.5096    0.0000 O   0  0  0  0  0  0  0  0  0  0  0  0
    3.6390    1.2130    0.0000 C   0  0  0  0  0  0  0  0  0  0  0  0
    0.0000    0.0000    0.0000 O   0  0  0  0  0  0  0  0  0  0  0  0
    4.3082    1.6313    0.0000 C   0  0  0  0  0  0  0  0  0  0  0  0
    4.3082    2.4678    0.0000 C   0  0  0  0  0  0  0  0  0  0  0  0
    5.0193    1.2130    0.0000 C   0  0  0  0  0  0  0  0  0  0  0  0
    5.0611    2.8861    0.0000 C   0  0  0  0  0  0  0  0  0  0  0  0
    5.7722    1.5895    0.0000 C   0  0  0  0  0  0  0  0  0  0  0  0
    5.7722    2.4260    0.0000 C   0  0  0  0  0  0  0  0  0  0  0  0
  2  1  2  0  0  0  0
  1  3  1  0  0  0  0
  4  2  1  0  0  0  0
  2  5  1  0  0  0  0
  3  6  2  0  0  0  0
  7  4  2  0  0  0  0
  5  8  2  0  0  0  0
  5  9  1  0  0  0  0
  6  7  1  0  0  0  0
  6 10  1  0  0  0  0
 11  9  1  0  0  0  0
 11 12  2  0  0  0  0
 13 11  1  0  0  0  0
 12 14  1  0  0  0  0
 15 13  2  0  0  0  0
 14 16  2  0  0  0  0
 16 15  1  0  0  0  0
M  END
>  <Name>
Benzyl 4-hydroxyphenyl ketone

>  <IGC50>
4.07

>  <CAS>
2491-32-9

>  <SET>
ws

>  <Species>
Tetrahymena pyriformis

>  <Test duration>
48h

$$$$

  Mrv1808 07152009202D          

 11 11  0  0  0  0            999 V2000
    2.4741   -1.4290    0.0000 N   0  3  0  0  0  0  0  0  0  0  0  0
    2.8869   -0.7131    0.0000 O   0  0  0  0  0  0  0  0  0  0  0  0
    2.8869   -2.1421    0.0000 O   0  5  0  0  0  0  0  0  0  0  0  0
    1.6484   -1.4290    0.0000 C   0  0  0  0  0  0  0  0  0  0  0  0
    1.2385   -2.1421    0.0000 C   0  0  0  0  0  0  0  0  0  0  0  0
    1.2385   -0.7131    0.0000 C   0  0  0  0  0  0  0  0  0  0  0  0
    0.4128   -2.1421    0.0000 C   0  0  0  0  0  0  0  0  0  0  0  0
    0.4128   -0.7131    0.0000 C   0  0  0  0  0  0  0  0  0  0  0  0
    1.6484    0.0000    0.0000 Cl  0  0  0  0  0  0  0  0  0  0  0  0
    0.0000   -1.4290    0.0000 C   0  0  0  0  0  0  0  0  0  0  0  0
    0.0000    0.0000    0.0000 Cl  0  0  0  0  0  0  0  0  0  0  0  0
  1  2  2  0  0  0  0
  1  3  1  0  0  0  0
  1  4  1  0  0  0  0
  4  5  2  0  0  0  0
  4  6  1  0  0  0  0
  5  7  1  0  0  0  0
  8  6  2  0  0  0  0
  6  9  1  0  0  0  0
  7 10  2  0  0  0  0
 10  8  1  0  0  0  0
  8 11  1  0  0  0  0
M  CHG  2   1   1   3  -1
M  END
>  <Name>
Benzene, 1,2-dichloro-3-nitro-

>  <IGC50>
4.07

>  <CAS>
3209-22-1

>  <SET>
ws

>  <Species>
Tetrahymena pyriformis

>  <Test duration>
48h

$$$$

  Mrv1808 07152009203D          

 10 10  0  0  0  0            999 V2000
   -3.8791   -0.0256   -0.0006 Br  0  0  0  0  0  0  0  0  0  0  0  0
   -1.9798   -0.0022   -0.0001 C   0  0  0  0  0  0  0  0  0  0  0  0
   -1.3439   -1.1953   -0.0001 N   0  0  0  0  0  0  0  0  0  0  0  0
   -1.3313    1.2221    0.0003 C   0  0  0  0  0  0  0  0  0  0  0  0
    0.0073   -1.1555    0.0003 C   0  0  0  0  0  0  0  0  0  0  0  0
    0.0592    1.2222    0.0006 C   0  0  0  0  0  0  0  0  0  0  0  0
    0.7489    0.0149    0.0004 C   0  0  0  0  0  0  0  0  0  0  0  0
    2.1658   -0.0175   -0.0002 N   0  3  0  0  0  0  0  0  0  0  0  0
    2.8016    1.0657   -0.0007 O   0  5  0  0  0  0  0  0  0  0  0  0
    2.7513   -1.1289    0.0001 O   0  0  0  0  0  0  0  0  0  0  0  0
  1  2  1  0  0  0  0
  3  2  2  0  0  0  0
  4  2  1  0  0  0  0
  3  5  1  0  0  0  0
  6  4  2  0  0  0  0
  7  5  2  0  0  0  0
  7  6  1  0  0  0  0
  8  7  1  0  0  0  0
  9  8  1  0  0  0  0
 10  8  2  0  0  0  0
M  CHG  2   8   1   9  -1
M  END
>  <Name>
2-bromo-5-nitropyridine

>  <IGC50>
4.07

>  <CAS>
4487-59-6

>  <SET>
ws

>  <Species>
Tetrahymena pyriformis

>  <Test duration>
48h

$$$$

  Mrv1808 07152009202D          

  9  9  0  0  0  0            999 V2000
    2.8594   -1.6499    0.0000 C   0  0  0  0  0  0  0  0  0  0  0  0
    2.1445   -1.2381    0.0000 C   0  0  0  0  0  0  0  0  0  0  0  0
    1.4297   -1.6499    0.0000 C   0  0  0  0  0  0  0  0  0  0  0  0
    2.1445   -0.4118    0.0000 C   0  0  0  0  0  0  0  0  0  0  0  0
    0.7148   -1.2381    0.0000 C   0  0  0  0  0  0  0  0  0  0  0  0
    1.4297    0.0000    0.0000 C   0  0  0  0  0  0  0  0  0  0  0  0
    0.0000   -1.6499    0.0000 Cl  0  0  0  0  0  0  0  0  0  0  0  0
    0.7148   -0.4118    0.0000 C   0  0  0  0  0  0  0  0  0  0  0  0
    0.0000    0.0000    0.0000 Cl  0  0  0  0  0  0  0  0  0  0  0  0
  1  2  1  0  0  0  0
  2  3  2  0  0  0  0
  2  4  1  0  0  0  0
  3  5  1  0  0  0  0
  6  4  2  0  0  0  0
  5  7  1  0  0  0  0
  5  8  2  0  0  0  0
  8  6  1  0  0  0  0
  8  9  1  0  0  0  0
M  END
>  <Name>
Toluene, 3,4-dichloro- (8CI)

>  <IGC50>
4.07

>  <CAS>
95-75-0

>  <SET>
ws

>  <Species>
Tetrahymena pyriformis

>  <Test duration>
48h

$$$$

  Mrv1808 07152009202D          

 13 13  0  0  0  0            999 V2000
    3.5677    0.0000    0.0000 O   0  0  0  0  0  0  0  0  0  0  0  0
    2.8567   -0.4112    0.0000 C   0  0  0  0  0  0  0  0  0  0  0  0
    2.8567   -1.2335    0.0000 C   0  0  0  0  0  0  0  0  0  0  0  0
    2.1415    0.0000    0.0000 C   0  0  0  0  0  0  0  0  0  0  0  0
    2.1415   -1.6490    0.0000 C   0  0  0  0  0  0  0  0  0  0  0  0
    3.5677   -1.6490    0.0000 N   0  3  0  0  0  0  0  0  0  0  0  0
    1.4262   -0.4112    0.0000 C   0  0  0  0  0  0  0  0  0  0  0  0
    1.4262   -1.2335    0.0000 C   0  0  0  0  0  0  0  0  0  0  0  0
    3.5677   -2.4713    0.0000 O   0  0  0  0  0  0  0  0  0  0  0  0
    4.2829   -1.2335    0.0000 O   0  5  0  0  0  0  0  0  0  0  0  0
    0.7152   -1.6490    0.0000 N   0  3  0  0  0  0  0  0  0  0  0  0
    0.7152   -2.4713    0.0000 O   0  0  0  0  0  0  0  0  0  0  0  0
    0.0000   -1.2335    0.0000 O   0  5  0  0  0  0  0  0  0  0  0  0
  1  2  1  0  0  0  0
  2  3  2  0  0  0  0
  2  4  1  0  0  0  0
  3  5  1  0  0  0  0
  3  6  1  0  0  0  0
  7  4  2  0  0  0  0
  5  8  2  0  0  0  0
  6  9  2  0  0  0  0
  6 10  1  0  0  0  0
  8  7  1  0  0  0  0
  8 11  1  0  0  0  0
 11 12  2  0  0  0  0
 11 13  1  0  0  0  0
M  CHG  4   6   1  10  -1  11   1  13  -1
M  END
>  <Name>
Phenol, 2,4-dinitro-

>  <IGC50>
4.06

>  <CAS>
51-28-5

>  <SET>
ws

>  <Species>
Tetrahymena pyriformis

>  <Test duration>
48h

$$$$

  Mrv1808 07152009202D          

  5  4  0  0  0  0            999 V2000
    0.0000   -0.4118    0.0000 C   0  0  0  0  0  0  0  0  0  0  0  0
    0.7149    0.0000    0.0000 C   0  0  0  0  0  0  0  0  0  0  0  0
    1.4298   -0.4118    0.0000 C   0  0  0  0  0  0  0  0  0  0  0  0
    2.1447    0.0000    0.0000 C   0  0  0  0  0  0  0  0  0  0  0  0
    2.8595   -0.4118    0.0000 O   0  0  0  0  0  0  0  0  0  0  0  0
  1  2  1  0  0  0  0
  2  3  2  0  0  0  0
  3  4  1  0  0  0  0
  4  5  2  0  0  0  0
M  END
>  <Name>
Crotonaldehyde, (E)-

>  <IGC50>
4.06

>  <CAS>
123-73-9

>  <SET>
ws

>  <Species>
Tetrahymena pyriformis

>  <Test duration>
48h

$$$$

  Mrv1808 07152009202D          

  9  9  0  0  0  0            999 V2000
    2.8594    0.0000    0.0000 O   0  0  0  0  0  0  0  0  0  0  0  0
    2.1445   -0.4118    0.0000 C   0  0  0  0  0  0  0  0  0  0  0  0
    2.1445   -1.2381    0.0000 C   0  0  0  0  0  0  0  0  0  0  0  0
    1.4297    0.0000    0.0000 C   0  0  0  0  0  0  0  0  0  0  0  0
    2.8594   -1.6499    0.0000 O   0  0  0  0  0  0  0  0  0  0  0  0
    1.4297   -1.6499    0.0000 C   0  0  0  0  0  0  0  0  0  0  0  0
    0.7148   -0.4118    0.0000 C   0  0  0  0  0  0  0  0  0  0  0  0
    0.7148   -1.2381    0.0000 C   0  0  0  0  0  0  0  0  0  0  0  0
    0.0000   -1.6499    0.0000 Cl  0  0  0  0  0  0  0  0  0  0  0  0
  1  2  1  0  0  0  0
  2  3  2  0  0  0  0
  2  4  1  0  0  0  0
  3  5  1  0  0  0  0
  3  6  1  0  0  0  0
  7  4  2  0  0  0  0
  6  8  2  0  0  0  0
  8  7  1  0  0  0  0
  8  9  1  0  0  0  0
M  END
>  <Name>
1,2-Benzenediol, 4-chloro-

>  <IGC50>
4.06

>  <CAS>
2138-22-9

>  <SET>
ws

>  <Species>
Tetrahymena pyriformis

>  <Test duration>
48h

$$$$

  Mrv1808 07152009202D          

 11 11  0  0  0  0            999 V2000
    2.9279    1.6731    0.0000 O   0  0  0  0  0  0  0  0  0  0  0  0
    2.1750    1.2548    0.0000 C   0  0  0  0  0  0  0  0  0  0  0  0
    1.4640    1.6731    0.0000 C   0  0  0  0  0  0  0  0  0  0  0  0
    2.1750    0.4183    0.0000 C   0  0  0  0  0  0  0  0  0  0  0  0
    1.4640    2.5097    0.0000 Br  0  0  0  0  0  0  0  0  0  0  0  0
    0.7529    1.2548    0.0000 C   0  0  0  0  0  0  0  0  0  0  0  0
    2.9279    0.0000    0.0000 Br  0  0  0  0  0  0  0  0  0  0  0  0
    1.4640    0.0000    0.0000 C   0  0  0  0  0  0  0  0  0  0  0  0
    0.0000    1.6731    0.0000 O   0  0  0  0  0  0  0  0  0  0  0  0
    0.7529    0.4183    0.0000 C   0  0  0  0  0  0  0  0  0  0  0  0
    0.0000    0.0000    0.0000 Br  0  0  0  0  0  0  0  0  0  0  0  0
  1  2  1  0  0  0  0
  3  2  2  0  0  0  0
  2  4  1  0  0  0  0
  3  5  1  0  0  0  0
  6  3  1  0  0  0  0
  4  7  1  0  0  0  0
  4  8  2  0  0  0  0
  6  9  1  0  0  0  0
 10  6  2  0  0  0  0
  8 10  1  0  0  0  0
 10 11  1  0  0  0  0
M  END
>  <Name>
1,3-Benzenediol, 2,4,6-tribromo- (9CI)

>  <IGC50>
4.06

>  <CAS>
2437-49-2

>  <SET>
ws

>  <Species>
Tetrahymena pyriformis

>  <Test duration>
48h

$$$$

  Mrv1808 07152009203D          

 12 11  0  0  0  0            999 V2000
   -4.4771    0.0472   -0.0016 C   0  0  0  0  0  0  0  0  0  0  0  0
   -5.5456   -1.0089   -0.0032 C   0  0  0  0  0  0  0  0  0  0  0  0
   -4.6244    1.2537    0.0012 O   0  0  0  0  0  0  0  0  0  0  0  0
   -3.2174   -0.4776   -0.0021 O   0  0  0  0  0  0  0  0  0  0  0  0
   -2.1066    0.4203    0.0023 C   0  0  0  0  0  0  0  0  0  0  0  0
   -0.8521   -0.4489    0.0022 C   0  0  0  0  0  0  0  0  0  0  0  0
    0.3906    0.4265    0.0015 C   0  0  0  0  0  0  0  0  0  0  0  0
    1.6560   -0.4159    0.0035 C   0  0  0  0  0  0  0  0  0  0  0  0
    2.9001    0.4575   -0.0012 C   0  0  0  0  0  0  0  0  0  0  0  0
    4.1658   -0.3842    0.0028 C   0  0  0  0  0  0  0  0  0  0  0  0
    5.4114    0.4875   -0.0059 C   0  0  0  0  0  0  0  0  0  0  0  0
    6.6717   -0.3478   -0.0001 C   0  0  0  0  0  0  0  0  0  0  0  0
  1  2  1  0  0  0  0
  1  3  2  0  0  0  0
  1  4  1  0  0  0  0
  4  5  1  0  0  0  0
  5  6  1  0  0  0  0
  6  7  1  0  0  0  0
  7  8  1  0  0  0  0
  8  9  1  0  0  0  0
  9 10  1  0  0  0  0
 10 11  1  0  0  0  0
 11 12  1  0  0  0  0
M  END
>  <Name>
Acetic acid, octyl ester

>  <IGC50>
4.057

>  <CAS>
112-14-1

>  <SET>
ws

>  <Species>
Tetrahymena pyriformis

>  <Test duration>
48h

$$$$

  Mrv1808 07152009202D          

  8  7  0  0  0  0            999 V2000
    0.0000    1.2131    0.0000 C   0  0  0  0  0  0  0  0  0  0  0  0
    0.7111    0.7948    0.0000 C   0  0  0  0  0  0  0  0  0  0  0  0
    1.4223    1.2131    0.0000 O   0  0  0  0  0  0  0  0  0  0  0  0
    2.1752    0.7948    0.0000 C   0  0  0  0  0  0  0  0  0  0  0  0
    2.8445    1.2131    0.0000 C   0  0  0  0  0  0  0  0  0  0  0  0
    2.1752    0.0000    0.0000 O   0  0  0  0  0  0  0  0  0  0  0  0
    3.5556    0.7948    0.0000 C   0  0  0  0  0  0  0  0  0  0  0  0
    2.8445    2.0497    0.0000 Br  0  0  0  0  0  0  0  0  0  0  0  0
  1  2  1  0  0  0  0
  2  3  1  0  0  0  0
  3  4  1  0  0  0  0
  4  5  1  0  0  0  0
  4  6  2  0  0  0  0
  5  7  1  0  0  0  0
  5  8  1  0  0  0  0
M  END
>  <Name>
Propionic acid, 2-bromo-, ethyl ester (6CI,7CI,8CI)

>  <IGC50>
4.057

>  <CAS>
535-11-5

>  <SET>
ws

>  <Species>
Tetrahymena pyriformis

>  <Test duration>
48h

$$$$

  Mrv1808 07152009202D          

  7  6  0  0  0  0            999 V2000
    0.7119   -1.2366    0.0000 C   0  0  0  0  0  0  0  0  0  0  0  0
    0.7119   -2.0563    0.0000 O   0  0  0  0  0  0  0  0  0  0  0  0
    1.4238   -0.8197    0.0000 O   0  0  0  0  0  0  0  0  0  0  0  0
    0.0000   -0.8197    0.0000 C   0  0  0  0  0  0  0  0  0  0  0  0
    2.1244   -1.2366    0.0000 C   0  0  0  0  0  0  0  0  0  0  0  0
    0.0000    0.0000    0.0000 Cl  0  0  0  0  0  0  0  0  0  0  0  0
    2.8363   -0.8197    0.0000 C   0  0  0  0  0  0  0  0  0  0  0  0
  1  2  2  0  0  0  0
  1  3  1  0  0  0  0
  1  4  1  0  0  0  0
  3  5  1  0  0  0  0
  4  6  1  0  0  0  0
  5  7  1  0  0  0  0
M  END
>  <Name>
Acetic acid, chloro-, ethyl ester

>  <IGC50>
4.056

>  <CAS>
105-39-5

>  <SET>
ws

>  <Species>
Tetrahymena pyriformis

>  <Test duration>
48h

$$$$

  Mrv1808 07152009202D          

 12 13  0  0  0  0            999 V2000
    1.2386    0.0000    0.0000 C   0  0  0  0  0  0  0  0  0  0  0  0
    1.6514   -0.7143    0.0000 C   0  0  0  0  0  0  0  0  0  0  0  0
    0.4129    0.0000    0.0000 C   0  0  0  0  0  0  0  0  0  0  0  0
    1.2386   -1.4285    0.0000 C   0  0  0  0  0  0  0  0  0  0  0  0
    2.4771   -0.7143    0.0000 C   0  0  0  0  0  0  0  0  0  0  0  0
    0.0000   -0.7143    0.0000 C   0  0  0  0  0  0  0  0  0  0  0  0
    0.4129   -1.4285    0.0000 C   0  0  0  0  0  0  0  0  0  0  0  0
    2.8900    0.0000    0.0000 C   0  0  0  0  0  0  0  0  0  0  0  0
    2.8900   -1.4285    0.0000 C   0  0  0  0  0  0  0  0  0  0  0  0
    3.7157    0.0000    0.0000 C   0  0  0  0  0  0  0  0  0  0  0  0
    3.7157   -1.4285    0.0000 C   0  0  0  0  0  0  0  0  0  0  0  0
    4.1285   -0.7143    0.0000 C   0  0  0  0  0  0  0  0  0  0  0  0
  1  2  2  0  0  0  0
  1  3  1  0  0  0  0
  2  4  1  0  0  0  0
  2  5  1  0  0  0  0
  6  3  2  0  0  0  0
  4  7  2  0  0  0  0
  5  8  2  0  0  0  0
  5  9  1  0  0  0  0
  7  6  1  0  0  0  0
  8 10  1  0  0  0  0
 11  9  2  0  0  0  0
 10 12  2  0  0  0  0
 12 11  1  0  0  0  0
M  END
>  <Name>
1,1'-Biphenyl

>  <IGC50>
4.05

>  <CAS>
92-52-4

>  <SET>
ws

>  <Species>
Tetrahymena pyriformis

>  <Test duration>
48h

$$$$

  Mrv1808 07152009202D          

 13 14  0  0  0  0            999 V2000
    1.1961    2.1036    0.0000 C   0  0  0  0  0  0  0  0  0  0  0  0
    1.6086    2.8460    0.0000 C   0  0  0  0  0  0  0  0  0  0  0  0
    1.6086    1.4024    0.0000 C   0  0  0  0  0  0  0  0  0  0  0  0
    2.4336    2.8460    0.0000 C   0  0  0  0  0  0  0  0  0  0  0  0
    2.4336    1.4024    0.0000 C   0  0  0  0  0  0  0  0  0  0  0  0
    1.1961    0.7012    0.0000 C   0  0  0  0  0  0  0  0  0  0  0  0
    2.8873    2.1036    0.0000 C   0  0  0  0  0  0  0  0  0  0  0  0
    2.8873    0.7012    0.0000 C   0  0  0  0  0  0  0  0  0  0  0  0
    1.6086    0.0000    0.0000 C   0  0  0  0  0  0  0  0  0  0  0  0
    0.4125    0.7012    0.0000 C   0  0  0  0  0  0  0  0  0  0  0  0
    2.4336    0.0000    0.0000 C   0  0  0  0  0  0  0  0  0  0  0  0
    3.6297    0.7012    0.0000 O   0  0  0  0  0  0  0  0  0  0  0  0
    0.0000    1.4024    0.0000 O   0  0  0  0  0  0  0  0  0  0  0  0
  2  1  2  0  0  0  0
  1  3  1  0  0  0  0
  4  2  1  0  0  0  0
  5  3  2  0  0  0  0
  3  6  1  0  0  0  0
  7  4  2  0  0  0  0
  5  7  1  0  0  0  0
  8  5  1  0  0  0  0
  6  9  2  0  0  0  0
  6 10  1  0  0  0  0
 11  8  2  0  0  0  0
  8 12  1  0  0  0  0
  9 11  1  0  0  0  0
 10 13  2  0  0  0  0
M  END
>  <Name>
1-Naphthaldehyde,4-hydroxy- (6CI,7CI,8CI)

>  <IGC50>
4.05

>  <CAS>
7770-45-8

>  <SET>
ws

>  <Species>
Tetrahymena pyriformis

>  <Test duration>
48h

$$$$

  Mrv1808 07152009203D          

  8  7  0  0  0  0            999 V2000
    3.0964   -0.3942    0.1599 C   0  0  0  0  0  0  0  0  0  0  0  0
    1.8331    0.3119   -0.1446 C   0  0  0  0  0  0  0  0  0  0  0  0
    4.1385   -0.1310   -0.3979 O   0  0  0  0  0  0  0  0  0  0  0  0
    0.7015    0.0062    0.4957 C   0  0  0  0  0  0  0  0  0  0  0  0
   -0.5862    0.7023    0.2373 C   0  0  0  0  0  0  0  0  0  0  0  0
   -1.7319   -0.2902    0.1033 C   0  0  0  0  0  0  0  0  0  0  0  0
   -3.0549    0.4241   -0.1226 C   0  0  0  0  0  0  0  0  0  0  0  0
   -4.1958   -0.5582   -0.2619 C   0  0  0  0  0  0  0  0  0  0  0  0
  1  2  1  0  0  0  0
  1  3  2  0  0  0  0
  2  4  2  0  0  0  0
  4  5  1  0  0  0  0
  5  6  1  0  0  0  0
  6  7  1  0  0  0  0
  7  8  1  0  0  0  0
M  END
>  <Name>
2-Heptenal, (2E)-

>  <IGC50>
4.05

>  <CAS>
18829-55-5

>  <SET>
ws

>  <Species>
Tetrahymena pyriformis

>  <Test duration>
48h

$$$$

  Mrv1808 07152009203D          

 12 11  0  0  0  0            999 V2000
    0.9112    0.0433    0.4865 C   0  0  0  0  0  0  0  0  0  0  0  0
    0.1395    1.1018   -0.2946 C   0  0  1  0  0  0  0  0  0  0  0  0
    1.0947   -0.0209    1.6838 O   0  0  0  0  0  0  0  0  0  0  0  0
    1.4332   -0.9240   -0.3378 O   0  0  0  0  0  0  0  0  0  0  0  0
   -1.3235    1.1123    0.1541 C   0  0  0  0  0  0  0  0  0  0  0  0
    0.7785    2.4754   -0.0748 C   0  0  0  0  0  0  0  0  0  0  0  0
    2.1688   -1.9690    0.1990 C   0  0  0  0  0  0  0  0  0  0  0  0
   -2.0713   -0.1319   -0.2986 C   0  0  0  0  0  0  0  0  0  0  0  0
    2.1316    2.5925   -0.7399 C   0  0  0  0  0  0  0  0  0  0  0  0
    2.6305   -2.8717   -0.6666 C   0  0  0  0  0  0  0  0  0  0  0  0
   -3.5229   -0.0949    0.1525 C   0  0  0  0  0  0  0  0  0  0  0  0
   -4.2715   -1.3293   -0.2966 C   0  0  0  0  0  0  0  0  0  0  0  0
  1  2  1  0  0  0  0
  1  3  2  0  0  0  0
  1  4  1  0  0  0  0
  2  5  1  0  0  0  0
  2  6  1  0  0  0  0
  4  7  1  0  0  0  0
  5  8  1  0  0  0  0
  6  9  1  0  0  0  0
  7 10  2  0  0  0  0
  8 11  1  0  0  0  0
 11 12  1  0  0  0  0
M  END
>  <Name>
Hexanoic acid, 2-ethyl-, ethenyl ester

>  <IGC50>
4.046

>  <CAS>
94-04-2

>  <SET>
ws

>  <Species>
Tetrahymena pyriformis

>  <Test duration>
48h

$$$$

  Mrv1808 07152009202D          

  8  7  0  0  0  0            999 V2000
    0.0000    0.0000    0.0000 Br  0  0  0  0  0  0  0  0  0  0  0  0
    0.7111    0.4183    0.0000 C   0  0  0  0  0  0  0  0  0  0  0  0
    1.4221    0.0000    0.0000 C   0  0  0  0  0  0  0  0  0  0  0  0
    2.1332    0.4183    0.0000 C   0  0  0  0  0  0  0  0  0  0  0  0
    2.8862    0.0000    0.0000 C   0  0  0  0  0  0  0  0  0  0  0  0
    3.5972    0.4183    0.0000 C   0  0  0  0  0  0  0  0  0  0  0  0
    4.3501    0.0000    0.0000 C   0  0  0  0  0  0  0  0  0  0  0  0
    5.0194    0.4183    0.0000 Br  0  0  0  0  0  0  0  0  0  0  0  0
  1  2  1  0  0  0  0
  2  3  1  0  0  0  0
  3  4  1  0  0  0  0
  4  5  1  0  0  0  0
  5  6  1  0  0  0  0
  7  6  1  0  0  0  0
  8  7  1  0  0  0  0
M  END
>  <Name>
Hexane, 1,6-dibromo-

>  <IGC50>
4.046

>  <CAS>
629-03-8

>  <SET>
ws

>  <Species>
Tetrahymena pyriformis

>  <Test duration>
48h

$$$$

  Mrv1808 07152009203D          

 11 10  0  0  0  0            999 V2000
    4.1207    1.7174    1.2484 C   0  0  0  0  0  0  0  0  0  0  0  0
    5.2159    2.1894    1.2690 C   0  0  0  0  0  0  0  0  0  0  0  0
    2.8145    1.1228    1.2316 C   0  0  0  0  0  0  0  0  0  0  0  0
    6.5392    2.7537    1.2929 C   0  0  0  0  0  0  0  0  0  0  0  0
    1.8587    1.9816    0.7529 O   0  0  0  0  0  0  0  0  0  0  0  0
    2.5083    0.0000    1.5802 O   0  0  0  0  0  0  0  0  0  0  0  0
    6.4957    4.2756    1.3789 C   0  0  0  0  0  0  0  0  0  0  0  0
    0.5254    1.5241    0.6828 C   0  0  0  0  0  0  0  0  0  0  0  0
    7.9005    4.8553    1.4077 C   0  0  0  0  0  0  0  0  0  0  0  0
    7.8694    6.3733    1.4879 C   0  0  0  0  0  0  0  0  0  0  0  0
    9.2649    6.9552    1.4885 C   0  0  0  0  0  0  0  0  0  0  0  0
  1  2  3  0  0  0  0
  1  3  1  0  0  0  0
  2  4  1  0  0  0  0
  3  5  1  0  0  0  0
  3  6  2  0  0  0  0
  4  7  1  0  0  0  0
  5  8  1  0  0  0  0
  7  9  1  0  0  0  0
  9 10  1  0  0  0  0
 10 11  1  0  0  0  0
M  END
>  <Name>
2-Octynoic acid, methyl ester

>  <IGC50>
4.04

>  <CAS>
111-12-6

>  <SET>
ws

>  <Species>
Tetrahymena pyriformis

>  <Test duration>
48h

$$$$

  Mrv1808 07152009202D          

 13 13  0  0  0  0            999 V2000
    2.8900    0.0000    0.0000 O   0  0  0  0  0  0  0  0  0  0  0  0
    2.4771   -0.7184    0.0000 C   0  0  0  0  0  0  0  0  0  0  0  0
    2.8900   -1.4326    0.0000 C   0  0  0  0  0  0  0  0  0  0  0  0
    1.6514   -0.7184    0.0000 C   0  0  0  0  0  0  0  0  0  0  0  0
    3.7157   -1.4326    0.0000 N   0  3  0  0  0  0  0  0  0  0  0  0
    2.4771   -2.1469    0.0000 C   0  0  0  0  0  0  0  0  0  0  0  0
    1.2386   -1.4326    0.0000 C   0  0  0  0  0  0  0  0  0  0  0  0
    4.1286   -2.1469    0.0000 O   0  0  0  0  0  0  0  0  0  0  0  0
    4.1286   -0.7184    0.0000 O   0  5  0  0  0  0  0  0  0  0  0  0
    1.6514   -2.1469    0.0000 C   0  0  0  0  0  0  0  0  0  0  0  0
    0.4129   -1.4326    0.0000 N   0  3  0  0  0  0  0  0  0  0  0  0
    0.0000   -0.7184    0.0000 O   0  5  0  0  0  0  0  0  0  0  0  0
    0.0000   -2.1469    0.0000 O   0  0  0  0  0  0  0  0  0  0  0  0
  1  2  1  0  0  0  0
  2  3  2  0  0  0  0
  2  4  1  0  0  0  0
  3  5  1  0  0  0  0
  3  6  1  0  0  0  0
  7  4  2  0  0  0  0
  5  8  2  0  0  0  0
  5  9  1  0  0  0  0
  6 10  2  0  0  0  0
 10  7  1  0  0  0  0
  7 11  1  0  0  0  0
 11 12  1  0  0  0  0
 11 13  2  0  0  0  0
M  CHG  4   5   1   9  -1  11   1  12  -1
M  END
>  <Name>
Phenol, 2,5-dinitro-

>  <IGC50>
4.04

>  <CAS>
329-71-5

>  <SET>
ws

>  <Species>
Tetrahymena pyriformis

>  <Test duration>
48h

$$$$

  Mrv1808 07152009202D          

 10 11  0  0  0  0            999 V2000
    2.0625    0.6600    0.0000 C   0  0  0  0  0  0  0  0  0  0  0  0
    2.5575    0.0000    0.0000 C   0  0  0  0  0  0  0  0  0  0  0  0
    2.5987    1.3200    0.0000 S   0  0  0  0  0  0  0  0  0  0  0  0
    1.2787    0.6600    0.0000 C   0  0  0  0  0  0  0  0  0  0  0  0
    3.3825    0.2475    0.0000 C   0  0  0  0  0  0  0  0  0  0  0  0
    3.3825    1.0725    0.0000 C   0  0  0  0  0  0  0  0  0  0  0  0
    0.7837    1.3200    0.0000 C   0  0  0  0  0  0  0  0  0  0  0  0
    0.7837    0.0000    0.0000 S   0  0  0  0  0  0  0  0  0  0  0  0
    0.0000    1.0725    0.0000 C   0  0  0  0  0  0  0  0  0  0  0  0
    0.0000    0.2475    0.0000 C   0  0  0  0  0  0  0  0  0  0  0  0
  1  2  2  0  0  0  0
  3  1  1  0  0  0  0
  1  4  1  0  0  0  0
  2  5  1  0  0  0  0
  6  3  1  0  0  0  0
  4  7  2  0  0  0  0
  8  4  1  0  0  0  0
  5  6  2  0  0  0  0
  7  9  1  0  0  0  0
 10  8  1  0  0  0  0
  9 10  2  0  0  0  0
M  END
>  <Name>
2,2'-Bithiophene

>  <IGC50>
4.04

>  <CAS>
492-97-7

>  <SET>
ws

>  <Species>
Tetrahymena pyriformis

>  <Test duration>
48h

$$$$

  Mrv1808 07152009202D          

 10 10  0  0  0  0            999 V2000
    0.0000   -2.1382    0.0000 O   0  0  0  0  0  0  0  0  0  0  0  0
    0.4113   -1.4266    0.0000 C   0  0  0  0  0  0  0  0  0  0  0  0
    1.2340   -1.4266    0.0000 C   0  0  0  0  0  0  0  0  0  0  0  0
    1.6453   -0.7115    0.0000 C   0  0  0  0  0  0  0  0  0  0  0  0
    1.6453   -2.1382    0.0000 C   0  0  0  0  0  0  0  0  0  0  0  0
    1.2340    0.0000    0.0000 Cl  0  0  0  0  0  0  0  0  0  0  0  0
    2.4717   -0.7115    0.0000 C   0  0  0  0  0  0  0  0  0  0  0  0
    2.4717   -2.1382    0.0000 C   0  0  0  0  0  0  0  0  0  0  0  0
    2.8830   -1.4266    0.0000 C   0  0  0  0  0  0  0  0  0  0  0  0
    3.7056   -1.4266    0.0000 Cl  0  0  0  0  0  0  0  0  0  0  0  0
  1  2  2  0  0  0  0
  2  3  1  0  0  0  0
  3  4  2  0  0  0  0
  3  5  1  0  0  0  0
  4  6  1  0  0  0  0
  4  7  1  0  0  0  0
  8  5  2  0  0  0  0
  7  9  2  0  0  0  0
  9  8  1  0  0  0  0
  9 10  1  0  0  0  0
M  END
>  <Name>
Benzaldehyde, 2,4-dichloro-

>  <IGC50>
4.04

>  <CAS>
874-42-0

>  <SET>
ws

>  <Species>
Tetrahymena pyriformis

>  <Test duration>
48h

$$$$

  Mrv1808 07152009203D          

 12 11  0  0  0  0            999 V2000
    5.6941    2.5457    1.1295 C   0  0  0  0  0  0  0  0  0  0  0  0
    5.0588    1.3519    1.8261 C   0  0  0  0  0  0  0  0  0  0  0  0
    7.0366    2.9260    1.7338 C   0  0  0  0  0  0  0  0  0  0  0  0
    3.6956    1.0102    1.2466 C   0  0  0  0  0  0  0  0  0  0  0  0
    8.1270    1.9138    1.4175 C   0  0  0  0  0  0  0  0  0  0  0  0
    2.6178    1.9754    1.6868 C   0  0  0  0  0  0  0  0  0  0  0  0
    9.4830    2.3897    1.9129 C   0  0  0  0  0  0  0  0  0  0  0  0
    1.7409    2.2831    0.6814 O   0  0  0  0  0  0  0  0  0  0  0  0
    2.4403    2.4620    2.7858 O   0  0  0  0  0  0  0  0  0  0  0  0
   10.5693    1.3662    1.6227 C   0  0  0  0  0  0  0  0  0  0  0  0
    0.6601    3.1459    0.9607 C   0  0  0  0  0  0  0  0  0  0  0  0
   11.9250    1.8514    2.0837 C   0  0  0  0  0  0  0  0  0  0  0  0
  1  2  1  0  0  0  0
  1  3  1  0  0  0  0
  2  4  1  0  0  0  0
  3  5  1  0  0  0  0
  4  6  1  0  0  0  0
  5  7  1  0  0  0  0
  6  8  1  0  0  0  0
  6  9  2  0  0  0  0
  7 10  1  0  0  0  0
  8 11  1  0  0  0  0
 10 12  1  0  0  0  0
M  END
>  <Name>
Nonanoic acid, methyl ester

>  <IGC50>
4.04

>  <CAS>
1731-84-6

>  <SET>
ws

>  <Species>
Tetrahymena pyriformis

>  <Test duration>
48h

$$$$

  Mrv1808 07152009203D          

 16 17  0  0  0  0            999 V2000
   -1.6617    3.9924    0.3894 O   0  0  0  0  0  0  0  0  0  0  0  0
   -1.5133    2.7540   -0.2934 C   0  0  0  0  0  0  0  0  0  0  0  0
   -0.2230    2.0864    0.1775 C   0  0  0  0  0  0  0  0  0  0  0  0
    0.0171    0.7034   -0.5048 C   0  0  2  0  0  0  0  0  0  0  0  0
   -1.0649   -0.2984   -0.2799 C   0  0  0  0  0  0  0  0  0  0  0  0
    1.4105    0.1416   -0.1790 C   0  0  0  0  0  0  0  0  0  0  0  0
   -1.3290   -1.2685   -1.2467 C   0  0  0  0  0  0  0  0  0  0  0  0
   -1.8129   -0.2650    0.8970 C   0  0  0  0  0  0  0  0  0  0  0  0
    2.4531    0.4612   -1.0126 C   0  0  0  0  0  0  0  0  0  0  0  0
    1.5493   -0.6543    0.9305 C   0  0  0  0  0  0  0  0  0  0  0  0
   -2.3408   -2.2053   -1.0366 C   0  0  0  0  0  0  0  0  0  0  0  0
   -2.8247   -1.2019    1.1071 C   0  0  0  0  0  0  0  0  0  0  0  0
    3.7174   -0.0486   -0.7171 C   0  0  0  0  0  0  0  0  0  0  0  0
    2.8137   -1.1640    1.2260 C   0  0  0  0  0  0  0  0  0  0  0  0
   -3.0887   -2.1720    0.1403 C   0  0  0  0  0  0  0  0  0  0  0  0
    3.8978   -0.8611    0.4021 C   0  0  0  0  0  0  0  0  0  0  0  0
  1  2  1  0  0  0  0
  3  2  1  0  0  0  0
  4  3  1  0  0  0  0
  4  5  1  0  0  0  0
  4  6  1  0  0  0  0
  5  7  2  0  0  0  0
  5  8  1  0  0  0  0
  6  9  2  0  0  0  0
  6 10  1  0  0  0  0
  7 11  1  0  0  0  0
  8 12  2  0  0  0  0
  9 13  1  0  0  0  0
 10 14  2  0  0  0  0
 11 15  2  0  0  0  0
 12 15  1  0  0  0  0
 13 16  2  0  0  0  0
 14 16  1  0  0  0  0
M  END
>  <Name>
3,3-diphenylpropan-1-ol

>  <IGC50>
4.04

>  <CAS>
20017-67-8

>  <SET>
ws

>  <Species>
Tetrahymena pyriformis

>  <Test duration>
48h

$$$$

  Mrv1808 07152009202D          

 15 16  0  0  0  0            999 V2000
    6.1989   -1.4319    0.0000 O   0  0  0  0  0  0  0  0  0  0  0  0
    5.3744   -1.4319    0.0000 C   0  0  0  0  0  0  0  0  0  0  0  0
    4.9591   -2.1448    0.0000 C   0  0  0  0  0  0  0  0  0  0  0  0
    4.9591   -0.7129    0.0000 C   0  0  0  0  0  0  0  0  0  0  0  0
    4.1346   -2.1448    0.0000 C   0  0  0  0  0  0  0  0  0  0  0  0
    4.1346   -0.7129    0.0000 C   0  0  0  0  0  0  0  0  0  0  0  0
    3.7193   -1.4319    0.0000 C   0  0  0  0  0  0  0  0  0  0  0  0
    2.8949   -1.4319    0.0000 O   0  0  0  0  0  0  0  0  0  0  0  0
    2.4795   -0.7129    0.0000 C   0  0  0  0  0  0  0  0  0  0  0  0
    1.6551   -0.7129    0.0000 C   0  0  0  0  0  0  0  0  0  0  0  0
    1.2398   -1.4319    0.0000 C   0  0  0  0  0  0  0  0  0  0  0  0
    1.2398    0.0000    0.0000 C   0  0  0  0  0  0  0  0  0  0  0  0
    0.4153   -1.4319    0.0000 C   0  0  0  0  0  0  0  0  0  0  0  0
    0.4153    0.0000    0.0000 C   0  0  0  0  0  0  0  0  0  0  0  0
    0.0000   -0.7129    0.0000 C   0  0  0  0  0  0  0  0  0  0  0  0
  1  2  1  0  0  0  0
  2  3  2  0  0  0  0
  2  4  1  0  0  0  0
  3  5  1  0  0  0  0
  6  4  2  0  0  0  0
  5  7  2  0  0  0  0
  7  6  1  0  0  0  0
  7  8  1  0  0  0  0
  8  9  1  0  0  0  0
  9 10  1  0  0  0  0
 10 11  2  0  0  0  0
 10 12  1  0  0  0  0
 11 13  1  0  0  0  0
 14 12  2  0  0  0  0
 13 15  2  0  0  0  0
 15 14  1  0  0  0  0
M  END
>  <Name>
Phenol, 4-(phenylmethoxy)-

>  <IGC50>
4.04

>  <CAS>
103-16-2

>  <SET>
ws

>  <Species>
Tetrahymena pyriformis

>  <Test duration>
48h

$$$$

  Mrv1808 07152009203D          

 12 11  0  0  0  0            999 V2000
   -4.2216   -0.5724    0.7290 O   0  0  0  0  0  0  0  0  0  0  0  0
   -3.3674   -0.0510   -0.1925 C   0  0  0  0  0  0  0  0  0  0  0  0
   -5.5298   -0.8914    0.2434 C   0  0  0  0  0  0  0  0  0  0  0  0
   -3.6024    0.1675   -1.3704 O   0  0  0  0  0  0  0  0  0  0  0  0
   -2.0816    0.2132    0.4883 C   0  0  0  0  0  0  0  0  0  0  0  0
   -1.0567    0.7359   -0.1979 C   0  0  0  0  0  0  0  0  0  0  0  0
    0.2824    1.0303    0.4156 C   0  0  0  0  0  0  0  0  0  0  0  0
    1.3877    0.2017   -0.2425 C   0  0  0  0  0  0  0  0  0  0  0  0
    2.7578    0.5252    0.3589 C   0  0  0  0  0  0  0  0  0  0  0  0
    3.8565   -0.3315   -0.2742 C   0  0  0  0  0  0  0  0  0  0  0  0
    5.2458   -0.0645    0.3090 C   0  0  0  0  0  0  0  0  0  0  0  0
    6.3293   -0.9630   -0.2667 C   0  0  0  0  0  0  0  0  0  0  0  0
  1  2  1  0  0  0  0
  1  3  1  0  0  0  0
  4  2  2  0  0  0  0
  5  2  1  0  0  0  0
  6  5  2  0  0  0  0
  7  6  1  0  0  0  0
  8  7  1  0  0  0  0
  9  8  1  0  0  0  0
  9 10  1  0  0  0  0
 10 11  1  0  0  0  0
 11 12  1  0  0  0  0
M  END
>  <Name>
methyl (E)-non-2-enoate

>  <IGC50>
4.04

>  <CAS>
111-79-5

>  <SET>
ws

>  <Species>
Tetrahymena pyriformis

>  <Test duration>
48h

$$$$

  Mrv1808 07152009202D          

  9  8  0  0  0  0            999 V2000
    0.0000   -0.4118    0.0000 C   0  0  0  0  0  0  0  0  0  0  0  0
    0.7149    0.0000    0.0000 C   0  0  0  0  0  0  0  0  0  0  0  0
    1.4298   -0.4118    0.0000 C   0  0  0  0  0  0  0  0  0  0  0  0
    2.1447    0.0000    0.0000 C   0  0  0  0  0  0  0  0  0  0  0  0
    2.8595   -0.4118    0.0000 S   0  0  0  0  0  0  0  0  0  0  0  0
    3.5744    0.0000    0.0000 C   0  0  0  0  0  0  0  0  0  0  0  0
    4.2893   -0.4118    0.0000 C   0  0  0  0  0  0  0  0  0  0  0  0
    5.0042    0.0000    0.0000 C   0  0  0  0  0  0  0  0  0  0  0  0
    5.7191   -0.4118    0.0000 C   0  0  0  0  0  0  0  0  0  0  0  0
  1  2  1  0  0  0  0
  2  3  1  0  0  0  0
  3  4  1  0  0  0  0
  4  5  1  0  0  0  0
  5  6  1  0  0  0  0
  6  7  1  0  0  0  0
  7  8  1  0  0  0  0
  8  9  1  0  0  0  0
M  END
>  <Name>
Butane, 1,1'-thiobis-

>  <IGC50>
4.04

>  <CAS>
544-40-1

>  <SET>
ws

>  <Species>
Tetrahymena pyriformis

>  <Test duration>
48h

$$$$

  Mrv1808 07152009202D          

 10 10  0  0  0  0            999 V2000
    1.6502    0.7013    0.0000 C   0  0  0  0  0  0  0  0  0  0  0  0
    2.4752    0.7013    0.0000 C   0  0  0  0  0  0  0  0  0  0  0  0
    1.2376    1.4026    0.0000 C   0  0  0  0  0  0  0  0  0  0  0  0
    2.8877    1.4026    0.0000 C   0  0  0  0  0  0  0  0  0  0  0  0
    2.8877    0.0000    0.0000 Br  0  0  0  0  0  0  0  0  0  0  0  0
    1.6502    2.1452    0.0000 C   0  0  0  0  0  0  0  0  0  0  0  0
    0.4125    1.4026    0.0000 N   0  0  0  0  0  0  0  0  0  0  0  0
    2.4752    2.1452    0.0000 C   0  0  0  0  0  0  0  0  0  0  0  0
    0.0000    0.7013    0.0000 O   0  0  0  0  0  0  0  0  0  0  0  0
    0.0000    2.1452    0.0000 O   0  0  0  0  0  0  0  0  0  0  0  0
  1  2  2  0  0  0  0
  3  1  1  0  0  0  0
  2  4  1  0  0  0  0
  2  5  1  0  0  0  0
  6  3  2  0  0  0  0
  3  7  1  0  0  0  0
  4  8  2  0  0  0  0
  8  6  1  0  0  0  0
  7  9  2  0  0  0  0
  7 10  2  0  0  0  0
M  END
>  <Name>
Benzene, 1-bromo-3-nitro-

>  <IGC50>
4.03

>  <CAS>
585-79-5

>  <SET>
ws

>  <Species>
Tetrahymena pyriformis

>  <Test duration>
48h

$$$$

  Mrv1808 07152009202D          

  7  6  0  0  0  0            999 V2000
    0.0000    0.0000    0.0000 Br  0  0  0  0  0  0  0  0  0  0  0  0
    0.7111    0.4183    0.0000 C   0  0  0  0  0  0  0  0  0  0  0  0
    1.4221    0.0000    0.0000 C   0  0  0  0  0  0  0  0  0  0  0  0
    2.1750    0.4183    0.0000 C   0  0  0  0  0  0  0  0  0  0  0  0
    2.8861    0.0000    0.0000 O   0  0  0  0  0  0  0  0  0  0  0  0
    2.1750    1.2548    0.0000 O   0  0  0  0  0  0  0  0  0  0  0  0
    3.5972    0.4183    0.0000 C   0  0  0  0  0  0  0  0  0  0  0  0
  1  2  1  0  0  0  0
  2  3  1  0  0  0  0
  3  4  1  0  0  0  0
  4  5  1  0  0  0  0
  4  6  2  0  0  0  0
  5  7  1  0  0  0  0
M  END
>  <Name>
Propionic acid, 3-bromo-, methyl ester (8CI)

>  <IGC50>
4.027

>  <CAS>
3395-91-3

>  <SET>
ws

>  <Species>
Tetrahymena pyriformis

>  <Test duration>
48h

$$$$

  Mrv1808 07152009202D          

  8  7  0  0  0  0            999 V2000
    0.0000    0.8578    0.0000 C   0  0  0  0  0  0  0  0  0  0  0  0
    0.7291    1.2438    0.0000 C   0  0  0  0  0  0  0  0  0  0  0  0
    1.5011    0.8578    0.0000 C   0  0  0  0  0  0  0  0  0  0  0  0
    2.2303    1.2438    0.0000 C   0  0  0  0  0  0  0  0  0  0  0  0
    1.5011    0.0000    0.0000 Br  0  0  0  0  0  0  0  0  0  0  0  0
    2.9165    0.8578    0.0000 O   0  0  0  0  0  0  0  0  0  0  0  0
    2.2303    2.1016    0.0000 O   0  0  0  0  0  0  0  0  0  0  0  0
    3.6456    1.2438    0.0000 C   0  0  0  0  0  0  0  0  0  0  0  0
  1  2  1  0  0  0  0
  2  3  1  0  0  0  0
  3  4  1  0  0  0  0
  3  5  1  0  0  0  0
  4  6  1  0  0  0  0
  4  7  2  0  0  0  0
  6  8  1  0  0  0  0
M  END
>  <Name>
Butanoic acid, 2-bromo-, methyl ester

>  <IGC50>
4.024

>  <CAS>
3196-15-4

>  <SET>
ws

>  <Species>
Tetrahymena pyriformis

>  <Test duration>
48h

$$$$

  Mrv1808 07152009202D          

 15 16  0  0  0  0            999 V2000
    2.8491   -1.2374    0.0000 C   0  0  0  0  0  0  0  0  0  0  0  0
    2.1406   -0.8233    0.0000 C   0  0  0  0  0  0  0  0  0  0  0  0
    2.8491   -2.0607    0.0000 C   0  0  0  0  0  0  0  0  0  0  0  0
    3.5626   -0.8233    0.0000 C   0  0  0  0  0  0  0  0  0  0  0  0
    2.1406    0.0000    0.0000 O   0  0  0  0  0  0  0  0  0  0  0  0
    1.4270   -1.2374    0.0000 C   0  0  0  0  0  0  0  0  0  0  0  0
    3.5626   -2.4749    0.0000 C   0  0  0  0  0  0  0  0  0  0  0  0
    4.2762   -1.2374    0.0000 C   0  0  0  0  0  0  0  0  0  0  0  0
    1.4270   -2.0607    0.0000 C   0  0  0  0  0  0  0  0  0  0  0  0
    0.7135   -0.8233    0.0000 C   0  0  0  0  0  0  0  0  0  0  0  0
    4.2762   -2.0607    0.0000 C   0  0  0  0  0  0  0  0  0  0  0  0
    0.7135   -2.4749    0.0000 C   0  0  0  0  0  0  0  0  0  0  0  0
    0.0000   -1.2374    0.0000 C   0  0  0  0  0  0  0  0  0  0  0  0
    4.9897   -2.4749    0.0000 O   0  0  0  0  0  0  0  0  0  0  0  0
    0.0000   -2.0607    0.0000 C   0  0  0  0  0  0  0  0  0  0  0  0
  1  2  1  0  0  0  0
  1  3  2  0  0  0  0
  1  4  1  0  0  0  0
  2  5  2  0  0  0  0
  2  6  1  0  0  0  0
  7  3  1  0  0  0  0
  4  8  2  0  0  0  0
  6  9  2  0  0  0  0
  6 10  1  0  0  0  0
 11  7  2  0  0  0  0
  8 11  1  0  0  0  0
  9 12  1  0  0  0  0
 13 10  2  0  0  0  0
 11 14  1  0  0  0  0
 12 15  2  0  0  0  0
 15 13  1  0  0  0  0
M  END
>  <Name>
Benzophenone, 4-hydroxy- (6CI,7CI,8CI)

>  <IGC50>
4.02

>  <CAS>
1137-42-4

>  <SET>
ws

>  <Species>
Tetrahymena pyriformis

>  <Test duration>
48h

$$$$

  Mrv1808 07152009202D          

 16 15  0  0  0  0            999 V2000
    1.3992   -0.7956    0.0000 C   0  0  0  0  0  0  0  0  0  0  0  0
    2.1308   -1.2255    0.0000 C   0  0  0  0  0  0  0  0  0  0  0  0
    0.7042   -1.2255    0.0000 O   0  0  0  0  0  0  0  0  0  0  0  0
    1.3992    0.0000    0.0000 O   0  0  0  0  0  0  0  0  0  0  0  0
    2.7984   -0.7956    0.0000 C   0  0  0  0  0  0  0  0  0  0  0  0
    0.0000   -0.7956    0.0000 C   0  0  0  0  0  0  0  0  0  0  0  0
    3.5300   -1.2255    0.0000 C   0  0  0  0  0  0  0  0  0  0  0  0
    4.2342   -0.7956    0.0000 C   0  0  0  0  0  0  0  0  0  0  0  0
    4.9384   -1.2255    0.0000 C   0  0  0  0  0  0  0  0  0  0  0  0
    5.6426   -0.7956    0.0000 C   0  0  0  0  0  0  0  0  0  0  0  0
    6.3468   -1.2255    0.0000 C   0  0  0  0  0  0  0  0  0  0  0  0
    7.0509   -0.7956    0.0000 C   0  0  0  0  0  0  0  0  0  0  0  0
    7.7459   -1.2255    0.0000 C   0  0  0  0  0  0  0  0  0  0  0  0
    8.4410   -0.8322    0.0000 O   0  0  0  0  0  0  0  0  0  0  0  0
    7.7459   -2.0211    0.0000 O   0  0  0  0  0  0  0  0  0  0  0  0
    9.1452   -1.2255    0.0000 C   0  0  0  0  0  0  0  0  0  0  0  0
  1  2  1  0  0  0  0
  1  3  1  0  0  0  0
  1  4  2  0  0  0  0
  2  5  1  0  0  0  0
  3  6  1  0  0  0  0
  5  7  1  0  0  0  0
  7  8  1  0  0  0  0
  8  9  1  0  0  0  0
  9 10  1  0  0  0  0
 10 11  1  0  0  0  0
 11 12  1  0  0  0  0
 12 13  1  0  0  0  0
 13 14  1  0  0  0  0
 13 15  2  0  0  0  0
 14 16  1  0  0  0  0
M  END
>  <Name>
Sebacic acid, dimethyl ester (8CI)

>  <IGC50>
4.011

>  <CAS>
106-79-6

>  <SET>
ws

>  <Species>
Tetrahymena pyriformis

>  <Test duration>
48h

$$$$

  Mrv1808 07152009202D          

  8  8  0  0  0  0            999 V2000
    0.0000   -0.7161    0.0000 N   0  0  0  0  0  0  0  0  0  0  0  0
    0.8250   -0.7161    0.0000 C   0  0  0  0  0  0  0  0  0  0  0  0
    1.2375    0.0000    0.0000 C   0  0  0  0  0  0  0  0  0  0  0  0
    1.2375   -1.4289    0.0000 C   0  0  0  0  0  0  0  0  0  0  0  0
    2.0625    0.0000    0.0000 C   0  0  0  0  0  0  0  0  0  0  0  0
    2.0625   -1.4289    0.0000 C   0  0  0  0  0  0  0  0  0  0  0  0
    2.4750   -0.7161    0.0000 C   0  0  0  0  0  0  0  0  0  0  0  0
    3.3001   -0.7161    0.0000 Br  0  0  0  0  0  0  0  0  0  0  0  0
  1  2  1  0  0  0  0
  2  3  2  0  0  0  0
  2  4  1  0  0  0  0
  3  5  1  0  0  0  0
  6  4  2  0  0  0  0
  5  7  2  0  0  0  0
  7  6  1  0  0  0  0
  7  8  1  0  0  0  0
M  END
>  <Name>
Benzenamine, 4-bromo-

>  <IGC50>
4.01

>  <CAS>
106-40-1

>  <SET>
ws

>  <Species>
Tetrahymena pyriformis

>  <Test duration>
48h

$$$$

  Mrv1808 07152009203D          

  9  8  0  0  0  0            999 V2000
   -0.5207    1.4872   -0.0085 O   0  0  0  0  0  0  0  0  0  0  0  0
   -0.5654    0.2600   -0.0168 C   0  0  0  0  0  0  0  0  0  0  0  0
    0.6794   -0.6103   -0.0369 C   0  0  0  0  0  0  0  0  0  0  0  0
   -1.8615   -0.4776   -0.0024 C   0  0  0  0  0  0  0  0  0  0  0  0
    1.9660    0.2136   -0.0221 C   0  0  0  0  0  0  0  0  0  0  0  0
   -3.0271    0.1815    0.0141 C   0  0  0  0  0  0  0  0  0  0  0  0
    3.2017   -0.6851   -0.0036 C   0  0  0  0  0  0  0  0  0  0  0  0
   -4.3559   -0.5007    0.0269 C   0  0  0  0  0  0  0  0  0  0  0  0
    4.4834    0.1313    0.0494 C   0  0  0  0  0  0  0  0  0  0  0  0
  1  2  2  0  0  0  0
  3  2  1  0  0  0  0
  2  4  1  0  0  0  0
  5  3  1  0  0  0  0
  4  6  2  0  0  0  0
  5  7  1  0  0  0  0
  6  8  1  0  0  0  0
  7  9  1  0  0  0  0
M  END
>  <Name>
(E)-oct-2-en-4-one

>  <IGC50>
4.01

>  <CAS>
4643-27-0

>  <SET>
ws

>  <Species>
Tetrahymena pyriformis

>  <Test duration>
48h

$$$$

  Mrv1808 07152009202D          

 10 10  0  0  0  0            999 V2000
    1.4286   -1.2393    0.0000 C   0  0  0  0  0  0  0  0  0  0  0  0
    0.7143   -1.6500    0.0000 C   0  0  0  0  0  0  0  0  0  0  0  0
    1.4286   -0.4143    0.0000 C   0  0  0  0  0  0  0  0  0  0  0  0
    2.1428   -1.6500    0.0000 C   0  0  0  0  0  0  0  0  0  0  0  0
    0.0000   -1.2393    0.0000 O   0  0  0  0  0  0  0  0  0  0  0  0
    0.7143    0.0000    0.0000 O   0  0  0  0  0  0  0  0  0  0  0  0
    2.1428    0.0000    0.0000 C   0  0  0  0  0  0  0  0  0  0  0  0
    2.8571   -1.2393    0.0000 C   0  0  0  0  0  0  0  0  0  0  0  0
    2.8571   -0.4143    0.0000 C   0  0  0  0  0  0  0  0  0  0  0  0
    3.5714   -1.6500    0.0000 Cl  0  0  0  0  0  0  0  0  0  0  0  0
  1  2  1  0  0  0  0
  1  3  2  0  0  0  0
  1  4  1  0  0  0  0
  2  5  2  0  0  0  0
  3  6  1  0  0  0  0
  3  7  1  0  0  0  0
  8  4  2  0  0  0  0
  7  9  2  0  0  0  0
  9  8  1  0  0  0  0
  8 10  1  0  0  0  0
M  END
>  <Name>
Benzaldehyde, 5-chloro-2-hydroxy-

>  <IGC50>
4.009

>  <CAS>
635-93-8

>  <SET>
ws

>  <Species>
Tetrahymena pyriformis

>  <Test duration>
48h

$$$$

  Mrv1808 07152009202D          

 13 14  0  0  0  0            999 V2000
    0.7143   -2.4751    0.0000 O   0  0  0  0  0  0  0  0  0  0  0  0
    0.7143   -1.6501    0.0000 N   0  3  0  0  0  0  0  0  0  0  0  0
    1.4286   -1.2358    0.0000 C   0  0  0  0  0  0  0  0  0  0  0  0
    0.0000   -1.2358    0.0000 O   0  5  0  0  0  0  0  0  0  0  0  0
    2.1430   -1.6501    0.0000 C   0  0  0  0  0  0  0  0  0  0  0  0
    1.4286   -0.4108    0.0000 C   0  0  0  0  0  0  0  0  0  0  0  0
    2.8573   -1.2358    0.0000 C   0  0  0  0  0  0  0  0  0  0  0  0
    2.1430   -2.4751    0.0000 C   0  0  0  0  0  0  0  0  0  0  0  0
    2.1430    0.0000    0.0000 C   0  0  0  0  0  0  0  0  0  0  0  0
    2.8573   -0.4108    0.0000 C   0  0  0  0  0  0  0  0  0  0  0  0
    3.5716   -1.6501    0.0000 C   0  0  0  0  0  0  0  0  0  0  0  0
    2.8573   -2.8858    0.0000 C   0  0  0  0  0  0  0  0  0  0  0  0
    3.5716   -2.4751    0.0000 C   0  0  0  0  0  0  0  0  0  0  0  0
  1  2  2  0  0  0  0
  2  3  1  0  0  0  0
  2  4  1  0  0  0  0
  3  5  2  0  0  0  0
  3  6  1  0  0  0  0
  5  7  1  0  0  0  0
  5  8  1  0  0  0  0
  9  6  2  0  0  0  0
  7 10  2  0  0  0  0
  7 11  1  0  0  0  0
 12  8  2  0  0  0  0
 10  9  1  0  0  0  0
 11 13  2  0  0  0  0
 13 12  1  0  0  0  0
M  CHG  2   2   1   4  -1
M  END
>  <Name>
Naphthalene, 1-nitro-

>  <IGC50>
4

>  <CAS>
86-57-7

>  <SET>
ws

>  <Species>
Tetrahymena pyriformis

>  <Test duration>
48h

$$$$

  Mrv1808 07152009203D          

 10 11  0  0  0  0            999 V2000
   -3.1720    0.7762   -0.2033 S   0  0  0  0  0  0  0  0  0  0  0  0
   -1.4976    1.1195   -0.3063 C   0  0  0  0  0  0  0  0  0  0  0  0
   -2.8668   -0.8519    0.2306 C   0  0  0  0  0  0  0  0  0  0  0  0
   -0.7249    0.0166   -0.0158 C   0  0  0  0  0  0  0  0  0  0  0  0
   -1.5182   -1.1254    0.2949 C   0  0  0  0  0  0  0  0  0  0  0  0
    0.7249   -0.0165   -0.0158 C   0  0  0  0  0  0  0  0  0  0  0  0
    1.5182    1.1254    0.2949 C   0  0  0  0  0  0  0  0  0  0  0  0
    1.4976   -1.1195   -0.3063 C   0  0  0  0  0  0  0  0  0  0  0  0
    2.8668    0.8519    0.2306 C   0  0  0  0  0  0  0  0  0  0  0  0
    3.1720   -0.7763   -0.2033 S   0  0  0  0  0  0  0  0  0  0  0  0
  1  2  1  0  0  0  0
  1  3  1  0  0  0  0
  4  2  2  0  0  0  0
  5  3  2  0  0  0  0
  4  6  1  0  0  0  0
  4  5  1  0  0  0  0
  6  7  1  0  0  0  0
  6  8  2  0  0  0  0
  7  9  2  0  0  0  0
 10  8  1  0  0  0  0
 10  9  1  0  0  0  0
M  END
>  <Name>
3-thiophen-3-ylthiophene

>  <IGC50>
4

>  <CAS>
3172-56-3

>  <SET>
ws

>  <Species>
Tetrahymena pyriformis

>  <Test duration>
48h

$$$$

  Mrv1808 07152009202D          

  8  7  0  0  0  0            999 V2000
    1.2375    2.8579    0.0000 C   0  0  0  0  0  0  0  0  0  0  0  0
    0.8250    2.1435    0.0000 C   0  0  0  0  0  0  0  0  0  0  0  0
    1.2375    1.4290    0.0000 C   0  0  0  0  0  0  0  0  0  0  0  0
    0.8250    0.7145    0.0000 C   0  0  0  0  0  0  0  0  0  0  0  0
    2.0625    1.4290    0.0000 Br  0  0  0  0  0  0  0  0  0  0  0  0
    1.2375    0.0000    0.0000 C   0  0  0  0  0  0  0  0  0  0  0  0
    0.0000    0.7145    0.0000 Br  0  0  0  0  0  0  0  0  0  0  0  0
    2.0625    0.0000    0.0000 C   0  0  0  0  0  0  0  0  0  0  0  0
  1  2  1  0  0  0  0
  2  3  1  0  0  0  0
  3  4  1  0  0  0  0
  3  5  1  0  0  0  0
  4  6  1  0  0  0  0
  4  7  1  0  0  0  0
  6  8  1  0  0  0  0
M  END
>  <Name>
Hexane,3,4-dibromo-, (R*,R*)-(??�)-

>  <IGC50>
3.998

>  <CAS>
16230-28-7

>  <SET>
ws

>  <Species>
Tetrahymena pyriformis

>  <Test duration>
48h

$$$$

  Mrv1808 07152009202D          

 11 11  0  0  0  0            999 V2000
    3.2941   -1.4266    0.0000 N   0  3  0  0  0  0  0  0  0  0  0  0
    3.7054   -0.7114    0.0000 O   0  0  0  0  0  0  0  0  0  0  0  0
    3.7054   -2.1380    0.0000 O   0  5  0  0  0  0  0  0  0  0  0  0
    2.4715   -1.4266    0.0000 C   0  0  0  0  0  0  0  0  0  0  0  0
    2.0602   -2.1380    0.0000 C   0  0  0  0  0  0  0  0  0  0  0  0
    2.0602   -0.7114    0.0000 C   0  0  0  0  0  0  0  0  0  0  0  0
    1.2339   -2.1380    0.0000 C   0  0  0  0  0  0  0  0  0  0  0  0
    1.2339   -0.7114    0.0000 C   0  0  0  0  0  0  0  0  0  0  0  0
    2.4715    0.0000    0.0000 Cl  0  0  0  0  0  0  0  0  0  0  0  0
    0.8226   -1.4266    0.0000 C   0  0  0  0  0  0  0  0  0  0  0  0
    0.0000   -1.4266    0.0000 Cl  0  0  0  0  0  0  0  0  0  0  0  0
  1  2  2  0  0  0  0
  1  3  1  0  0  0  0
  1  4  1  0  0  0  0
  4  5  2  0  0  0  0
  4  6  1  0  0  0  0
  5  7  1  0  0  0  0
  8  6  2  0  0  0  0
  6  9  1  0  0  0  0
  7 10  2  0  0  0  0
 10  8  1  0  0  0  0
 10 11  1  0  0  0  0
M  CHG  2   1   1   3  -1
M  END
>  <Name>
Benzene, 2,4-dichloro-1-nitro-

>  <IGC50>
3.99

>  <CAS>
611-06-3

>  <SET>
ws

>  <Species>
Tetrahymena pyriformis

>  <Test duration>
48h

$$$$

  Mrv1808 07152009203D          

 11 10  0  0  0  0            999 V2000
    4.1212   -1.3516    0.4004 O   0  0  0  0  0  0  0  0  0  0  0  0
    4.0300   -0.1310   -0.3291 C   0  0  1  0  0  0  0  0  0  0  0  0
    2.7457    0.5999    0.0732 C   0  0  0  0  0  0  0  0  0  0  0  0
    5.2615    0.7134   -0.0301 C   0  0  0  0  0  0  0  0  0  0  0  0
    1.4915   -0.2263   -0.2325 C   0  0  0  0  0  0  0  0  0  0  0  0
    0.2197    0.5334    0.1500 C   0  0  0  0  0  0  0  0  0  0  0  0
   -1.0342   -0.2732   -0.1919 C   0  0  0  0  0  0  0  0  0  0  0  0
   -2.3054    0.4720    0.2214 C   0  0  0  0  0  0  0  0  0  0  0  0
   -3.5590   -0.3222   -0.1521 C   0  0  0  0  0  0  0  0  0  0  0  0
   -4.8612    0.3909    0.2184 C   0  0  0  0  0  0  0  0  0  0  0  0
   -6.1099   -0.4054   -0.1276 C   0  0  0  0  0  0  0  0  0  0  0  0
  1  2  1  0  0  0  0
  3  2  1  0  0  0  0
  2  4  1  0  0  0  0
  5  3  1  0  0  0  0
  6  5  1  0  0  0  0
  6  7  1  0  0  0  0
  7  8  1  0  0  0  0
  8  9  1  0  0  0  0
  9 10  1  0  0  0  0
 10 11  1  0  0  0  0
M  END
>  <Name>
decan-2-ol

>  <IGC50>
3.99

>  <CAS>
1120-06-5

>  <SET>
ws

>  <Species>
Tetrahymena pyriformis

>  <Test duration>
48h

$$$$

  Mrv1808 07152009202D          

  6  5  0  0  0  0            999 V2000
    0.7157   -0.7177    0.0000 S   0  0  0  0  0  0  0  0  0  0  0  0
    0.2984   -1.4236    0.0000 O   0  0  0  0  0  0  0  0  0  0  0  0
    1.4334   -1.1253    0.0000 O   0  0  0  0  0  0  0  0  0  0  0  0
    0.0000   -0.2984    0.0000 C   0  0  0  0  0  0  0  0  0  0  0  0
    1.1253    0.0000    0.0000 C   0  0  0  0  0  0  0  0  0  0  0  0
    1.9503    0.0000    0.0000 C   0  0  0  0  0  0  0  0  0  0  0  0
  1  2  2  0  0  0  0
  1  3  2  0  0  0  0
  1  4  1  0  0  0  0
  1  5  1  0  0  0  0
  5  6  2  0  0  0  0
M  END
>  <Name>
Ethene, (methylsulfonyl)- (9CI)

>  <IGC50>
3.99

>  <CAS>
3680-02-2

>  <SET>
ws

>  <Species>
Tetrahymena pyriformis

>  <Test duration>
48h

$$$$

  Mrv1808 07152009202D          

 11 10  0  0  0  0            999 V2000
    6.4227    0.0000    0.0000 C   0  0  0  0  0  0  0  0  0  0  0  0
    7.1364   -0.4139    0.0000 O   0  0  0  0  0  0  0  0  0  0  0  0
    5.7091   -0.4139    0.0000 C   0  0  0  0  0  0  0  0  0  0  0  0
    4.9955   -0.8207    0.0000 C   0  0  0  0  0  0  0  0  0  0  0  0
    4.2818   -1.2346    0.0000 C   0  0  0  0  0  0  0  0  0  0  0  0
    3.5682   -0.8207    0.0000 C   0  0  0  0  0  0  0  0  0  0  0  0
    2.8546   -1.2346    0.0000 C   0  0  0  0  0  0  0  0  0  0  0  0
    2.1409   -0.8207    0.0000 C   0  0  0  0  0  0  0  0  0  0  0  0
    1.4273   -1.2346    0.0000 C   0  0  0  0  0  0  0  0  0  0  0  0
    0.7136   -0.8207    0.0000 C   0  0  0  0  0  0  0  0  0  0  0  0
    0.0000   -1.2346    0.0000 C   0  0  0  0  0  0  0  0  0  0  0  0
  1  2  1  0  0  0  0
  1  3  1  0  0  0  0
  3  4  3  0  0  0  0
  4  5  1  0  0  0  0
  5  6  1  0  0  0  0
  6  7  1  0  0  0  0
  7  8  1  0  0  0  0
  8  9  1  0  0  0  0
  9 10  1  0  0  0  0
 10 11  1  0  0  0  0
M  END
>  <Name>
2-Decyn-1-ol

>  <IGC50>
3.986

>  <CAS>
4117-14-0

>  <SET>
ws

>  <Species>
Tetrahymena pyriformis

>  <Test duration>
48h

$$$$

  Mrv1808 07152009202D          

 18 18  0  0  0  0            999 V2000
    1.4200   -1.2400    0.0000 C   0  0  0  0  0  0  0  0  0  0  0  0
    1.4200   -2.0650    0.0000 C   0  0  0  0  0  0  0  0  0  0  0  0
    2.1350   -0.8250    0.0000 C   0  0  0  0  0  0  0  0  0  0  0  0
    0.7050   -0.8250    0.0000 C   0  0  0  0  0  0  0  0  0  0  0  0
    2.1350   -2.4750    0.0000 C   0  0  0  0  0  0  0  0  0  0  0  0
    0.7050   -2.4750    0.0000 C   0  0  0  0  0  0  0  0  0  0  0  0
    2.1350    0.0000    0.0000 O   0  0  0  0  0  0  0  0  0  0  0  0
    2.8550   -1.2400    0.0000 O   0  0  0  0  0  0  0  0  0  0  0  0
    0.0000   -1.2400    0.0000 C   0  0  0  0  0  0  0  0  0  0  0  0
    2.8550   -2.0650    0.0000 O   0  0  0  0  0  0  0  0  0  0  0  0
    2.1350   -3.3001    0.0000 O   0  0  0  0  0  0  0  0  0  0  0  0
    0.0000   -2.0650    0.0000 C   0  0  0  0  0  0  0  0  0  0  0  0
    3.5701   -0.8250    0.0000 C   0  0  0  0  0  0  0  0  0  0  0  0
    2.8550   -3.7150    0.0000 C   0  0  0  0  0  0  0  0  0  0  0  0
    4.2850   -1.2400    0.0000 C   0  0  0  0  0  0  0  0  0  0  0  0
    2.8550   -4.5400    0.0000 C   0  0  0  0  0  0  0  0  0  0  0  0
    5.0001   -0.8250    0.0000 C   0  0  0  0  0  0  0  0  0  0  0  0
    3.5701   -4.9501    0.0000 C   0  0  0  0  0  0  0  0  0  0  0  0
  1  2  2  0  0  0  0
  1  3  1  0  0  0  0
  1  4  1  0  0  0  0
  2  5  1  0  0  0  0
  2  6  1  0  0  0  0
  3  7  2  0  0  0  0
  3  8  1  0  0  0  0
  4  9  2  0  0  0  0
  5 10  2  0  0  0  0
  5 11  1  0  0  0  0
  6 12  2  0  0  0  0
  8 13  1  0  0  0  0
  9 12  1  0  0  0  0
 11 14  1  0  0  0  0
 13 15  1  0  0  0  0
 14 16  1  0  0  0  0
 15 17  1  0  0  0  0
 16 18  1  0  0  0  0
M  END
>  <Name>
dipropyl benzene-1,2-dicarboxylate

>  <IGC50>
3.98

>  <CAS>
131-16-8

>  <SET>
ws

>  <Species>
Tetrahymena pyriformis

>  <Test duration>
48h

$$$$

  Mrv1808 07152009203D          

 10  9  0  0  0  0            999 V2000
    4.2155   -0.8133   -0.6305 O   0  0  0  0  0  0  0  0  0  0  0  0
    3.3426   -0.0530   -0.2110 C   0  0  0  0  0  0  0  0  0  0  0  0
    1.9839   -0.5951    0.0636 C   0  0  0  0  0  0  0  0  0  0  0  0
    3.6290    1.4072    0.0249 C   0  0  0  0  0  0  0  0  0  0  0  0
    0.9647    0.1463    0.5168 C   0  0  0  0  0  0  0  0  0  0  0  0
   -0.4023   -0.4147    0.7917 C   0  0  0  0  0  0  0  0  0  0  0  0
   -1.5107    0.3044    0.0163 C   0  0  0  0  0  0  0  0  0  0  0  0
   -2.9021   -0.2810    0.2765 C   0  0  0  0  0  0  0  0  0  0  0  0
   -3.9704    0.4474   -0.5396 C   0  0  0  0  0  0  0  0  0  0  0  0
   -5.3502   -0.1481   -0.3086 C   0  0  0  0  0  0  0  0  0  0  0  0
  1  2  2  0  0  0  0
  3  2  1  0  0  0  0
  2  4  1  0  0  0  0
  5  3  2  0  0  0  0
  6  5  1  0  0  0  0
  7  6  1  0  0  0  0
  8  7  1  0  0  0  0
  8  9  1  0  0  0  0
  9 10  1  0  0  0  0
M  END
>  <Name>
(E)-non-3-en-2-one

>  <IGC50>
3.98

>  <CAS>
14309-57-0

>  <SET>
ws

>  <Species>
Tetrahymena pyriformis

>  <Test duration>
48h

$$$$

  Mrv1808 07152009202D          

 11 11  0  0  0  0            999 V2000
    1.4273   -1.6414    0.0000 C   0  0  0  0  0  0  0  0  0  0  0  0
    1.4237   -2.4693    0.0000 C   0  0  0  0  0  0  0  0  0  0  0  0
    2.1445   -1.2310    0.0000 C   0  0  0  0  0  0  0  0  0  0  0  0
    0.7137   -1.2310    0.0000 C   0  0  0  0  0  0  0  0  0  0  0  0
    2.1374   -2.8832    0.0000 C   0  0  0  0  0  0  0  0  0  0  0  0
    2.8546   -1.6449    0.0000 C   0  0  0  0  0  0  0  0  0  0  0  0
    0.7137   -0.4032    0.0000 C   0  0  0  0  0  0  0  0  0  0  0  0
    0.0000   -1.6414    0.0000 C   0  0  0  0  0  0  0  0  0  0  0  0
    2.8546   -2.4728    0.0000 C   0  0  0  0  0  0  0  0  0  0  0  0
    0.0107    0.0000    0.0000 C   0  0  0  0  0  0  0  0  0  0  0  0
    3.5683   -2.8867    0.0000 O   0  0  0  0  0  0  0  0  0  0  0  0
  1  2  2  0  0  0  0
  1  3  1  0  0  0  0
  1  4  1  0  0  0  0
  2  5  1  0  0  0  0
  3  6  2  0  0  0  0
  4  7  1  0  0  0  0
  4  8  1  0  0  0  0
  9  5  2  0  0  0  0
  9  6  1  0  0  0  0
  7 10  1  0  0  0  0
  9 11  1  0  0  0  0
M  END
>  <Name>
Phenol, 4-(1-methylpropyl)-

>  <IGC50>
3.98

>  <CAS>
99-71-8

>  <SET>
ws

>  <Species>
Tetrahymena pyriformis

>  <Test duration>
48h

$$$$

  Mrv1808 07152009203D          

 12 12  0  0  0  0            999 V2000
    4.3577   -2.4038   -0.3848 Br  0  0  0  0  0  0  0  0  0  0  0  0
    2.9348   -1.6038    0.6137 C   0  0  0  0  0  0  0  0  0  0  0  0
    1.8846   -1.0376   -0.1090 C   0  0  0  0  0  0  0  0  0  0  0  0
    2.9180   -1.5734    2.0082 C   0  0  0  0  0  0  0  0  0  0  0  0
    1.8738   -1.0518   -1.4745 O   0  0  0  0  0  0  0  0  0  0  0  0
    0.8176   -0.4410    0.5626 C   0  0  0  0  0  0  0  0  0  0  0  0
    4.3731   -2.3571    2.9883 Br  0  0  0  0  0  0  0  0  0  0  0  0
    1.8509   -0.9767    2.6799 C   0  0  0  0  0  0  0  0  0  0  0  0
   -0.1956    0.1057   -0.1718 O   0  0  0  0  0  0  0  0  0  0  0  0
    0.8008   -0.4105    1.9570 C   0  0  0  0  0  0  0  0  0  0  0  0
    1.8140   -0.9218    4.6003 Br  0  0  0  0  0  0  0  0  0  0  0  0
   -0.6989    0.4281    2.7995 Br  0  0  0  0  0  0  0  0  0  0  0  0
  1  2  1  0  0  0  0
  3  2  1  0  0  0  0
  2  4  2  0  0  0  0
  5  3  1  0  0  0  0
  3  6  2  0  0  0  0
  7  4  1  0  0  0  0
  4  8  1  0  0  0  0
  9  6  1  0  0  0  0
  6 10  1  0  0  0  0
 11  8  1  0  0  0  0
 10  8  2  0  0  0  0
 12 10  1  0  0  0  0
M  END
>  <Name>
1,2-Benzenediol, 3,4,5,6-tetrabromo- (9CI)

>  <IGC50>
3.98

>  <CAS>
488-47-1

>  <SET>
ws

>  <Species>
Tetrahymena pyriformis

>  <Test duration>
48h

$$$$

  Mrv1808 07152009202D          

 10 10  0  0  0  0            999 V2000
    2.8596   -1.6499    0.0000 Cl  0  0  0  0  0  0  0  0  0  0  0  0
    2.1447   -1.2382    0.0000 C   0  0  0  0  0  0  0  0  0  0  0  0
    1.4298   -1.6499    0.0000 C   0  0  0  0  0  0  0  0  0  0  0  0
    2.1447   -0.4118    0.0000 C   0  0  0  0  0  0  0  0  0  0  0  0
    0.7149   -1.2382    0.0000 C   0  0  0  0  0  0  0  0  0  0  0  0
    1.4298    0.0000    0.0000 C   0  0  0  0  0  0  0  0  0  0  0  0
    2.8596    0.0000    0.0000 O   0  0  0  0  0  0  0  0  0  0  0  0
    0.0000   -1.6499    0.0000 Cl  0  0  0  0  0  0  0  0  0  0  0  0
    0.7149   -0.4118    0.0000 C   0  0  0  0  0  0  0  0  0  0  0  0
    0.0000    0.0000    0.0000 O   0  0  0  0  0  0  0  0  0  0  0  0
  1  2  1  0  0  0  0
  2  3  1  0  0  0  0
  2  4  2  0  0  0  0
  3  5  2  0  0  0  0
  4  6  1  0  0  0  0
  4  7  1  0  0  0  0
  5  8  1  0  0  0  0
  5  9  1  0  0  0  0
  6  9  2  0  0  0  0
  9 10  1  0  0  0  0
M  END
>  <Name>
Resorcinol, 4,6-dichloro- (8CI)

>  <IGC50>
3.97

>  <CAS>
137-19-9

>  <SET>
ws

>  <Species>
Tetrahymena pyriformis

>  <Test duration>
48h

$$$$

  Mrv1808 07152009202D          

 13 13  0  0  0  0            999 V2000
    1.4640    1.6731    0.0000 C   0  0  0  0  0  0  0  0  0  0  0  0
    1.4640    2.4679    0.0000 C   0  0  0  0  0  0  0  0  0  0  0  0
    0.7529    1.2549    0.0000 C   0  0  0  0  0  0  0  0  0  0  0  0
    0.7529    2.8862    0.0000 C   0  0  0  0  0  0  0  0  0  0  0  0
    0.0000    1.6731    0.0000 C   0  0  0  0  0  0  0  0  0  0  0  0
    0.7529    0.4183    0.0000 O   0  0  0  0  0  0  0  0  0  0  0  0
    0.0000    2.4679    0.0000 C   0  0  0  0  0  0  0  0  0  0  0  0
    0.7529    3.7228    0.0000 N   0  0  0  0  0  0  0  0  0  0  0  0
    1.4640    0.0000    0.0000 C   0  0  0  0  0  0  0  0  0  0  0  0
    2.1751    0.4183    0.0000 C   0  0  0  0  0  0  0  0  0  0  0  0
    2.8862    0.0000    0.0000 C   0  0  0  0  0  0  0  0  0  0  0  0
    3.5973    0.4183    0.0000 C   0  0  0  0  0  0  0  0  0  0  0  0
    4.3084    0.0000    0.0000 C   0  0  0  0  0  0  0  0  0  0  0  0
  2  1  2  0  0  0  0
  1  3  1  0  0  0  0
  4  2  1  0  0  0  0
  3  5  2  0  0  0  0
  3  6  1  0  0  0  0
  7  4  2  0  0  0  0
  4  8  1  0  0  0  0
  5  7  1  0  0  0  0
  6  9  1  0  0  0  0
 10  9  1  0  0  0  0
 11 10  1  0  0  0  0
 12 11  1  0  0  0  0
 13 12  1  0  0  0  0
M  END
>  <Name>
Benzenamine, 4-(pentyloxy)-

>  <IGC50>
3.97

>  <CAS>
39905-50-5

>  <SET>
ws

>  <Species>
Tetrahymena pyriformis

>  <Test duration>
48h

$$$$

  Mrv1808 07152009202D          

 13 13  0  0  0  0            999 V2000
    2.4339    0.7013    0.0000 C   0  0  0  0  0  0  0  0  0  0  0  0
    1.6089    0.7013    0.0000 C   0  0  0  0  0  0  0  0  0  0  0  0
    2.8052    1.4438    0.0000 C   0  0  0  0  0  0  0  0  0  0  0  0
    1.2376    1.4438    0.0000 C   0  0  0  0  0  0  0  0  0  0  0  0
    1.1963    0.0000    0.0000 F   0  0  0  0  0  0  0  0  0  0  0  0
    2.4339    2.1039    0.0000 C   0  0  0  0  0  0  0  0  0  0  0  0
    3.6303    1.4438    0.0000 Br  0  0  0  0  0  0  0  0  0  0  0  0
    1.6501    2.1039    0.0000 C   0  0  0  0  0  0  0  0  0  0  0  0
    0.4125    1.4438    0.0000 O   0  0  0  0  0  0  0  0  0  0  0  0
    1.2376    2.8465    0.0000 N   0  0  0  0  0  0  0  0  0  0  0  0
    0.0000    0.7013    0.0000 C   0  0  0  0  0  0  0  0  0  0  0  0
    0.4125    2.8465    0.0000 O   0  0  0  0  0  0  0  0  0  0  0  0
    1.6501    3.5477    0.0000 O   0  0  0  0  0  0  0  0  0  0  0  0
  2  1  2  0  0  0  0
  1  3  1  0  0  0  0
  4  2  1  0  0  0  0
  2  5  1  0  0  0  0
  3  6  2  0  0  0  0
  3  7  1  0  0  0  0
  8  4  2  0  0  0  0
  4  9  1  0  0  0  0
  6  8  1  0  0  0  0
  8 10  1  0  0  0  0
  9 11  1  0  0  0  0
 10 12  2  0  0  0  0
 10 13  2  0  0  0  0
M  END
>  <Name>
4-Bromo-2-fluoro-6-nitrophenyl methyl ether

>  <IGC50>
3.97

>  <CAS>
74266-66-3

>  <SET>
ws

>  <Species>
Tetrahymena pyriformis

>  <Test duration>
48h

$$$$

  Mrv1808 07152009202D          

 18 19  0  0  0  0            999 V2000
    2.8442    2.5514    0.0000 O   0  0  0  0  0  0  0  0  0  0  0  0
    2.8442    1.6730    0.0000 C   0  0  0  0  0  0  0  0  0  0  0  0
    2.1332    1.2548    0.0000 C   0  0  0  0  0  0  0  0  0  0  0  0
    3.5971    1.2967    0.0000 C   0  0  0  0  0  0  0  0  0  0  0  0
    1.4221    1.6730    0.0000 C   0  0  0  0  0  0  0  0  0  0  0  0
    2.1332    0.4183    0.0000 C   0  0  0  0  0  0  0  0  0  0  0  0
    4.3082    1.7149    0.0000 C   0  0  0  0  0  0  0  0  0  0  0  0
    3.5971    0.4601    0.0000 C   0  0  0  0  0  0  0  0  0  0  0  0
    1.4221    2.5096    0.0000 O   0  0  0  0  0  0  0  0  0  0  0  0
    0.7111    1.2548    0.0000 C   0  0  0  0  0  0  0  0  0  0  0  0
    1.4221    0.0000    0.0000 C   0  0  0  0  0  0  0  0  0  0  0  0
    4.3082    2.5096    0.0000 O   0  0  0  0  0  0  0  0  0  0  0  0
    5.0611    1.2548    0.0000 C   0  0  0  0  0  0  0  0  0  0  0  0
    4.3500    0.0000    0.0000 C   0  0  0  0  0  0  0  0  0  0  0  0
    0.7111    0.4183    0.0000 C   0  0  0  0  0  0  0  0  0  0  0  0
    5.0611    0.4601    0.0000 C   0  0  0  0  0  0  0  0  0  0  0  0
    0.0000    0.0000    0.0000 O   0  0  0  0  0  0  0  0  0  0  0  0
    5.7721    0.0418    0.0000 O   0  0  0  0  0  0  0  0  0  0  0  0
  1  2  2  0  0  0  0
  2  3  1  0  0  0  0
  2  4  1  0  0  0  0
  5  3  2  0  0  0  0
  3  6  1  0  0  0  0
  4  7  2  0  0  0  0
  8  4  1  0  0  0  0
  5  9  1  0  0  0  0
 10  5  1  0  0  0  0
  6 11  2  0  0  0  0
  7 12  1  0  0  0  0
  7 13  1  0  0  0  0
 14  8  2  0  0  0  0
 15 10  2  0  0  0  0
 11 15  1  0  0  0  0
 13 16  2  0  0  0  0
 16 14  1  0  0  0  0
 15 17  1  0  0  0  0
 16 18  1  0  0  0  0
M  END
>  <Name>
Benzophenone, 2,2',4,4'-tetrahydroxy-

>  <IGC50>
3.96

>  <CAS>
131-55-5

>  <SET>
ws

>  <Species>
Tetrahymena pyriformis

>  <Test duration>
48h

$$$$

  Mrv1808 07152009202D          

  9  9  0  0  0  0            999 V2000
    0.0000    1.8219    0.0000 S   0  0  0  0  0  0  0  0  0  0  0  0
    0.0000    1.0352    0.0000 C   0  0  0  0  0  0  0  0  0  0  0  0
    0.7867    2.0703    0.0000 C   0  0  0  0  0  0  0  0  0  0  0  0
    0.7867    0.7867    0.0000 C   0  0  0  0  0  0  0  0  0  0  0  0
    1.2836    1.4078    0.0000 C   0  0  0  0  0  0  0  0  0  0  0  0
    2.0703    1.4078    0.0000 C   0  0  0  0  0  0  0  0  0  0  0  0
    2.4844    0.7453    0.0000 C   0  0  0  0  0  0  0  0  0  0  0  0
    3.3125    0.7453    0.0000 C   0  0  0  0  0  0  0  0  0  0  0  0
    3.7266    0.0000    0.0000 C   0  0  0  0  0  0  0  0  0  0  0  0
  2  1  1  0  0  0  0
  1  3  1  0  0  0  0
  4  2  2  0  0  0  0
  3  5  2  0  0  0  0
  5  4  1  0  0  0  0
  5  6  1  0  0  0  0
  6  7  1  0  0  0  0
  8  7  1  0  0  0  0
  8  9  1  0  0  0  0
M  END
>  <Name>
3-n-Butylthiophene

>  <IGC50>
3.96

>  <CAS>
34722-01-5

>  <SET>
ws

>  <Species>
Tetrahymena pyriformis

>  <Test duration>
48h

$$$$

  Mrv1808 07152009202D          

 11 10  0  0  0  0            999 V2000
    0.0000    0.4183    0.0000 O   0  0  0  0  0  0  0  0  0  0  0  0
    0.7529    0.0000    0.0000 C   0  0  0  0  0  0  0  0  0  0  0  0
    1.5058    0.4183    0.0000 C   0  0  0  0  0  0  0  0  0  0  0  0
    2.2169    0.0000    0.0000 C   0  0  0  0  0  0  0  0  0  0  0  0
    2.9279    0.4183    0.0000 C   0  0  0  0  0  0  0  0  0  0  0  0
    3.6390    0.0000    0.0000 C   0  0  0  0  0  0  0  0  0  0  0  0
    4.3082    0.4183    0.0000 C   0  0  0  0  0  0  0  0  0  0  0  0
    5.0611    0.0000    0.0000 C   0  0  0  0  0  0  0  0  0  0  0  0
    5.8141    0.4183    0.0000 C   0  0  0  0  0  0  0  0  0  0  0  0
    5.8141    1.1711    0.0000 C   0  0  0  0  0  0  0  0  0  0  0  0
    6.5251    1.5895    0.0000 C   0  0  0  0  0  0  0  0  0  0  0  0
  1  2  2  0  0  0  0
  2  3  1  0  0  0  0
  3  4  1  0  0  0  0
  4  5  1  0  0  0  0
  5  6  1  0  0  0  0
  6  7  1  0  0  0  0
  7  8  1  0  0  0  0
  9  8  2  0  0  0  0
  9 10  1  0  0  0  0
 10 11  1  0  0  0  0
M  END
>  <Name>
7-Decenal, (7Z)-

>  <IGC50>
3.949

>  <CAS>
21661-97-2

>  <SET>
ws

>  <Species>
Tetrahymena pyriformis

>  <Test duration>
48h

$$$$

  Mrv1808 07152009202D          

 13 13  0  0  0  0            999 V2000
   -0.0001    1.9930    0.0000 N   0  0  0  0  0  0  0  0  0  0  0  0
    0.0000    1.1691    0.0000 C   0  0  0  0  0  0  0  0  0  0  0  0
    0.7186    0.7539    0.0000 C   0  0  0  0  0  0  0  0  0  0  0  0
   -0.7186    0.7540    0.0000 C   0  0  0  0  0  0  0  0  0  0  0  0
    0.7123   -0.0692    0.0000 C   0  0  0  0  0  0  0  0  0  0  0  0
   -0.7123   -0.0692    0.0000 C   0  0  0  0  0  0  0  0  0  0  0  0
   -0.0001   -0.4856    0.0000 C   0  0  0  0  0  0  0  0  0  0  0  0
    1.4828   -0.5123    0.0000 N   0  3  0  0  0  0  0  0  0  0  0  0
   -1.4828   -0.5123    0.0000 N   0  3  0  0  0  0  0  0  0  0  0  0
    2.0971   -0.1424    0.0000 O   0  0  0  0  0  0  0  0  0  0  0  0
    1.4766   -1.2281    0.0000 O   0  5  0  0  0  0  0  0  0  0  0  0
   -2.0972   -0.1426    0.0000 O   0  0  0  0  0  0  0  0  0  0  0  0
   -1.4764   -1.2281    0.0000 O   0  5  0  0  0  0  0  0  0  0  0  0
  1  2  1  0  0  0  0
  2  3  1  0  0  0  0
  2  4  2  0  0  0  0
  3  5  2  0  0  0  0
  6  4  1  0  0  0  0
  5  7  1  0  0  0  0
  5  8  1  0  0  0  0
  7  6  2  0  0  0  0
  6  9  1  0  0  0  0
  8 10  2  0  0  0  0
  8 11  1  0  0  0  0
  9 12  2  0  0  0  0
  9 13  1  0  0  0  0
M  CHG  4   8   1   9   1  11  -1  13  -1
M  END
>  <Name>
Benzenamine, 3,5-dinitro- (9CI)

>  <IGC50>
3.94

>  <CAS>
618-87-1

>  <SET>
ws

>  <Species>
Tetrahymena pyriformis

>  <Test duration>
48h

$$$$

  Mrv1808 07152009203D          

 11 11  0  0  0  0            999 V2000
    1.4363   -0.7554    0.0289 O   0  0  0  0  0  0  0  0  0  0  0  0
    1.0490    0.5467    0.0036 C   0  0  0  0  0  0  0  0  0  0  0  0
    2.7952   -0.7571    0.0173 C   0  0  0  0  0  0  0  0  0  0  0  0
    2.1457    1.3765   -0.0238 C   0  0  0  0  0  0  0  0  0  0  0  0
   -0.3128    0.9269    0.0048 C   0  0  0  0  0  0  0  0  0  0  0  0
    3.2797    0.5298   -0.0148 C   0  0  0  0  0  0  0  0  0  0  0  0
   -1.4253    0.1088    0.0085 C   0  0  0  0  0  0  0  0  0  0  0  0
   -2.7373    0.6718    0.0042 C   0  0  0  0  0  0  0  0  0  0  0  0
   -1.2727   -1.3104   -0.0078 C   0  0  0  0  0  0  0  0  0  0  0  0
   -3.8048    1.1272    0.0011 N   0  0  0  0  0  0  0  0  0  0  0  0
   -1.1528   -2.4647   -0.0219 N   0  0  0  0  0  0  0  0  0  0  0  0
  1  2  1  0  0  0  0
  1  3  1  0  0  0  0
  2  4  2  0  0  0  0
  2  5  1  0  0  0  0
  6  3  2  0  0  0  0
  4  6  1  0  0  0  0
  5  7  2  0  0  0  0
  7  8  1  0  0  0  0
  7  9  1  0  0  0  0
 10  8  3  0  0  0  0
 11  9  3  0  0  0  0
M  END
>  <Name>
2-(furan-2-ylmethylidene)propanedinitrile

>  <IGC50>
3.94

>  <CAS>
3237-22-7

>  <SET>
ws

>  <Species>
Tetrahymena pyriformis

>  <Test duration>
48h

$$$$

  Mrv1808 07152009202D          

  7  6  0  0  0  0            999 V2000
    0.0000   -0.4112    0.0000 Br  0  0  0  0  0  0  0  0  0  0  0  0
    0.7153    0.0000    0.0000 C   0  0  0  0  0  0  0  0  0  0  0  0
    1.4263   -0.4112    0.0000 C   0  0  0  0  0  0  0  0  0  0  0  0
    2.1416    0.0000    0.0000 C   0  0  0  0  0  0  0  0  0  0  0  0
    2.8569   -0.4112    0.0000 C   0  0  0  0  0  0  0  0  0  0  0  0
    3.5679    0.0000    0.0000 C   0  0  0  0  0  0  0  0  0  0  0  0
    4.2832   -0.4112    0.0000 C   0  0  0  0  0  0  0  0  0  0  0  0
  1  2  1  0  0  0  0
  2  3  1  0  0  0  0
  3  4  1  0  0  0  0
  4  5  1  0  0  0  0
  5  6  1  0  0  0  0
  6  7  1  0  0  0  0
M  END
>  <Name>
Hexane, 1-bromo-

>  <IGC50>
3.937

>  <CAS>
111-25-1

>  <SET>
ws

>  <Species>
Tetrahymena pyriformis

>  <Test duration>
48h

$$$$

  Mrv1808 07152009203D          

 10 10  0  0  0  0            999 V2000
    0.6816    3.1038   -0.0005 Cl  0  0  0  0  0  0  0  0  0  0  0  0
    0.4878    1.3937    0.0005 C   0  0  0  0  0  0  0  0  0  0  0  0
   -0.7911    0.8370    0.0006 C   0  0  0  0  0  0  0  0  0  0  0  0
    1.6093    0.5645    0.0000 C   0  0  0  0  0  0  0  0  0  0  0  0
   -0.9486   -0.5490    0.0002 C   0  0  0  0  0  0  0  0  0  0  0  0
    1.4520   -0.8215   -0.0006 C   0  0  0  0  0  0  0  0  0  0  0  0
   -2.1963   -1.0922   -0.0004 O   0  0  0  0  0  0  0  0  0  0  0  0
    0.1730   -1.3782   -0.0005 C   0  0  0  0  0  0  0  0  0  0  0  0
    2.8354   -1.8455    0.0005 Cl  0  0  0  0  0  0  0  0  0  0  0  0
   -3.3032   -0.2127    0.0002 C   0  0  0  0  0  0  0  0  0  0  0  0
  1  2  1  0  0  0  0
  3  2  2  0  0  0  0
  2  4  1  0  0  0  0
  5  3  1  0  0  0  0
  6  4  2  0  0  0  0
  7  5  1  0  0  0  0
  5  8  2  0  0  0  0
  9  6  1  0  0  0  0
  8  6  1  0  0  0  0
  7 10  1  0  0  0  0
M  END
>  <Name>
1,3-dichloro-5-methoxybenzene

>  <IGC50>
3.93

>  <CAS>
33719-74-3

>  <SET>
ws

>  <Species>
Tetrahymena pyriformis

>  <Test duration>
48h

$$$$

  Mrv1808 07152009202D          

 11 11  0  0  0  0            999 V2000
    2.0821    0.7224    0.0000 C   0  0  0  0  0  0  0  0  0  0  0  0
    1.2747    0.7224    0.0000 C   0  0  0  0  0  0  0  0  0  0  0  0
    2.4645    1.4022    0.0000 C   0  0  0  0  0  0  0  0  0  0  0  0
    2.5069    0.0000    0.0000 F   0  0  0  0  0  0  0  0  0  0  0  0
    0.8073    1.4022    0.0000 C   0  0  0  0  0  0  0  0  0  0  0  0
    2.0821    2.1670    0.0000 C   0  0  0  0  0  0  0  0  0  0  0  0
    3.3567    1.4022    0.0000 N   0  0  0  0  0  0  0  0  0  0  0  0
    1.2747    2.1670    0.0000 C   0  0  0  0  0  0  0  0  0  0  0  0
    0.0000    1.4022    0.0000 O   0  0  0  0  0  0  0  0  0  0  0  0
    3.7392    2.1670    0.0000 O   0  0  0  0  0  0  0  0  0  0  0  0
    3.7392    0.7224    0.0000 O   0  0  0  0  0  0  0  0  0  0  0  0
  2  1  2  0  0  0  0
  1  3  1  0  0  0  0
  1  4  1  0  0  0  0
  5  2  1  0  0  0  0
  3  6  2  0  0  0  0
  3  7  1  0  0  0  0
  8  5  2  0  0  0  0
  5  9  1  0  0  0  0
  6  8  1  0  0  0  0
  7 10  2  0  0  0  0
  7 11  2  0  0  0  0
M  END
>  <Name>
Phenol, 3-fluoro-4-nitro-

>  <IGC50>
3.93

>  <CAS>
394-41-2

>  <SET>
ws

>  <Species>
Tetrahymena pyriformis

>  <Test duration>
48h

$$$$

  Mrv1808 07152009202D          

 10 10  0  0  0  0            999 V2000
    0.0000    1.4438    0.0000 C   0  0  0  0  0  0  0  0  0  0  0  0
    0.8250    1.4438    0.0000 C   0  0  0  0  0  0  0  0  0  0  0  0
    1.2375    2.1450    0.0000 C   0  0  0  0  0  0  0  0  0  0  0  0
    1.2375    0.7425    0.0000 C   0  0  0  0  0  0  0  0  0  0  0  0
    0.8250    2.8876    0.0000 C   0  0  0  0  0  0  0  0  0  0  0  0
    2.0626    2.1450    0.0000 C   0  0  0  0  0  0  0  0  0  0  0  0
    0.8250    0.0000    0.0000 C   0  0  0  0  0  0  0  0  0  0  0  0
    2.0626    0.7425    0.0000 C   0  0  0  0  0  0  0  0  0  0  0  0
    2.4751    1.4438    0.0000 C   0  0  0  0  0  0  0  0  0  0  0  0
    3.3001    1.4438    0.0000 O   0  0  0  0  0  0  0  0  0  0  0  0
  1  2  1  0  0  0  0
  3  2  2  0  0  0  0
  2  4  1  0  0  0  0
  3  5  1  0  0  0  0
  6  3  1  0  0  0  0
  4  7  1  0  0  0  0
  4  8  2  0  0  0  0
  9  6  2  0  0  0  0
  8  9  1  0  0  0  0
  9 10  1  0  0  0  0
M  END
>  <Name>
Phenol, 3,4,5-trimethyl-

>  <IGC50>
3.93

>  <CAS>
527-54-8

>  <SET>
ws

>  <Species>
Tetrahymena pyriformis

>  <Test duration>
48h

$$$$

  Mrv1808 07152009203D          

  7  6  0  0  0  0            999 V2000
    0.0000    0.0000    0.0000 O   0  0  0  0  0  0  0  0  0  0  0  0
    0.4200   -1.0000   -0.5200 C   0  0  0  0  0  0  0  0  0  0  0  0
    1.8600   -1.1400   -0.7800 C   0  0  0  0  0  0  0  0  0  0  0  0
   -0.5000   -2.1400   -0.9000 C   0  0  0  0  0  0  0  0  0  0  0  0
    2.7200   -0.2400   -0.3400 C   0  0  0  0  0  0  0  0  0  0  0  0
    0.2600   -3.3800   -1.3400 C   0  0  0  0  0  0  0  0  0  0  0  0
    4.2000   -0.4200   -0.6400 C   0  0  0  0  0  0  0  0  0  0  0  0
  1  2  2  0  0  0  0
  2  3  1  0  0  0  0
  2  4  1  0  0  0  0
  3  5  2  0  0  0  0
  4  6  1  0  0  0  0
  5  7  1  0  0  0  0
M  END
>  <Name>
(E)-hex-4-en-3-one

>  <IGC50>
3.92

>  <CAS>
2497-21-4

>  <SET>
ws

>  <Species>
Tetrahymena pyriformis

>  <Test duration>
48h

$$$$

  Mrv1808 07152009202D          

 14 15  0  0  0  0            999 V2000
    2.1750    2.0914    0.0000 C   0  0  0  0  0  0  0  0  0  0  0  0
    1.4222    2.5097    0.0000 C   0  0  0  0  0  0  0  0  0  0  0  0
    2.1750    1.2548    0.0000 C   0  0  0  0  0  0  0  0  0  0  0  0
    2.9698    2.0914    0.0000 C   0  0  0  0  0  0  0  0  0  0  0  0
    0.7111    2.0914    0.0000 C   0  0  0  0  0  0  0  0  0  0  0  0
    1.4222    0.8784    0.0000 C   0  0  0  0  0  0  0  0  0  0  0  0
    3.6808    2.5097    0.0000 C   0  0  0  0  0  0  0  0  0  0  0  0
    2.9698    1.2548    0.0000 C   0  0  0  0  0  0  0  0  0  0  0  0
    0.7111    1.2548    0.0000 C   0  0  0  0  0  0  0  0  0  0  0  0
    4.3919    2.0914    0.0000 C   0  0  0  0  0  0  0  0  0  0  0  0
    3.6808    0.8784    0.0000 C   0  0  0  0  0  0  0  0  0  0  0  0
    0.0000    0.8784    0.0000 C   0  0  0  0  0  0  0  0  0  0  0  0
    4.3919    1.2548    0.0000 C   0  0  0  0  0  0  0  0  0  0  0  0
    0.0000    0.0000    0.0000 O   0  0  0  0  0  0  0  0  0  0  0  0
  2  1  2  0  0  0  0
  1  3  1  0  0  0  0
  1  4  1  0  0  0  0
  5  2  1  0  0  0  0
  3  6  2  0  0  0  0
  4  7  2  0  0  0  0
  8  4  1  0  0  0  0
  9  5  2  0  0  0  0
  6  9  1  0  0  0  0
  7 10  1  0  0  0  0
 11  8  2  0  0  0  0
  9 12  1  0  0  0  0
 10 13  2  0  0  0  0
 13 11  1  0  0  0  0
 12 14  1  0  0  0  0
M  END
>  <Name>
p-Phenylbenzyl alcohol

>  <IGC50>
3.92

>  <CAS>
3597-91-9

>  <SET>
ws

>  <Species>
Tetrahymena pyriformis

>  <Test duration>
48h

$$$$

  Mrv1808 07152009203D          

 14 14  0  0  0  0            999 V2000
    3.3281   -0.8583    0.2872 O   0  0  0  0  0  0  0  0  0  0  0  0
    2.7343    0.3156   -0.1000 C   0  0  0  0  0  0  0  0  0  0  0  0
    4.7602   -0.8725    0.2955 C   0  0  0  0  0  0  0  0  0  0  0  0
    3.3674    1.3202   -0.4285 O   0  0  0  0  0  0  0  0  0  0  0  0
    1.2843    0.2073   -0.0672 C   0  0  0  0  0  0  0  0  0  0  0  0
    0.5066    1.3345    0.1971 C   0  0  0  0  0  0  0  0  0  0  0  0
    0.6715   -1.0239   -0.3005 C   0  0  0  0  0  0  0  0  0  0  0  0
   -0.8840    1.2306    0.2283 C   0  0  0  0  0  0  0  0  0  0  0  0
   -0.7191   -1.1279   -0.2694 C   0  0  0  0  0  0  0  0  0  0  0  0
   -1.4510    0.0029   -0.0061 C   0  0  0  0  0  0  0  0  0  0  0  0
   -2.9840   -0.1116    0.0292 C   0  0  2  0  0  0  0  0  0  0  0  0
   -3.5990    0.8165   -1.0406 C   0  0  0  0  0  0  0  0  0  0  0  0
   -3.5044    0.3046    1.4221 C   0  0  0  0  0  0  0  0  0  0  0  0
   -3.5108   -1.5381   -0.2470 C   0  0  0  0  0  0  0  0  0  0  0  0
  1  2  1  0  0  0  0
  1  3  1  0  0  0  0
  4  2  2  0  0  0  0
  5  2  1  0  0  0  0
  6  5  2  0  0  0  0
  7  5  1  0  0  0  0
  8  6  1  0  0  0  0
  9  7  2  0  0  0  0
 10  8  2  0  0  0  0
 10  9  1  0  0  0  0
 11 10  1  0  0  0  0
 11 12  1  0  0  0  0
 11 13  1  0  0  0  0
 11 14  1  0  0  0  0
M  END
>  <Name>
methyl 4-tert-butylbenzoate

>  <IGC50>
3.92

>  <CAS>
26537-19-9

>  <SET>
ws

>  <Species>
Tetrahymena pyriformis

>  <Test duration>
48h

$$$$

  Mrv1808 07152009203D          

 14 15  0  0  0  0            999 V2000
   -3.6568    0.9428    0.0008 O   0  5  0  0  0  0  0  0  0  0  0  0
   -2.8466   -0.0132    0.0002 N   0  3  0  0  0  0  0  0  0  0  0  0
   -3.2218   -1.2089   -0.0004 O   0  0  0  0  0  0  0  0  0  0  0  0
   -1.4514    0.2688   -0.0004 C   0  0  0  0  0  0  0  0  0  0  0  0
   -0.5019   -0.7489   -0.0004 C   0  0  0  0  0  0  0  0  0  0  0  0
   -1.0358    1.5945   -0.0002 C   0  0  0  0  0  0  0  0  0  0  0  0
   -0.9399   -2.0988    0.0001 N   0  0  0  0  0  0  0  0  0  0  0  0
    0.8693   -0.4419   -0.0001 C   0  0  0  0  0  0  0  0  0  0  0  0
    0.3275    1.8995    0.0000 C   0  0  0  0  0  0  0  0  0  0  0  0
    1.2985    0.9019   -0.0001 C   0  0  0  0  0  0  0  0  0  0  0  0
    1.8465   -1.4466    0.0002 C   0  0  0  0  0  0  0  0  0  0  0  0
    2.6042    1.2307   -0.0001 N   0  0  0  0  0  0  0  0  0  0  0  0
    3.1926   -1.1109    0.0004 C   0  0  0  0  0  0  0  0  0  0  0  0
    3.5155    0.2310    0.0001 C   0  0  0  0  0  0  0  0  0  0  0  0
  1  2  1  0  0  0  0
  3  2  2  0  0  0  0
  2  4  1  0  0  0  0
  5  4  2  0  0  0  0
  4  6  1  0  0  0  0
  7  5  1  0  0  0  0
  8  5  1  0  0  0  0
  9  6  2  0  0  0  0
  8 10  2  0  0  0  0
  8 11  1  0  0  0  0
 10  9  1  0  0  0  0
 12 10  1  0  0  0  0
 11 13  2  0  0  0  0
 12 14  2  0  0  0  0
 13 14  1  0  0  0  0
M  CHG  2   1  -1   2   1
M  END
>  <Name>
6-nitroquinolin-5-amine

>  <IGC50>
3.92

>  <CAS>
35975-00-9

>  <SET>
ws

>  <Species>
Tetrahymena pyriformis

>  <Test duration>
48h

$$$$

  Mrv1808 07152009203D          

 10 10  0  0  0  0            999 V2000
   -1.5128   -0.1364   -1.0343 O   0  0  0  0  0  0  0  0  0  0  0  0
   -1.2347   -0.5086    0.2247 C   0  0  0  0  0  0  0  0  0  0  0  0
   -2.4409    0.8491   -0.9162 C   0  0  0  0  0  0  0  0  0  0  0  0
   -0.2117   -1.6097    0.3480 C   0  0  0  0  0  0  0  0  0  0  0  0
   -1.9320    0.1821    1.1507 C   0  0  0  0  0  0  0  0  0  0  0  0
   -2.7324    1.0824    0.4077 C   0  0  0  0  0  0  0  0  0  0  0  0
    1.1262   -1.2907   -0.3290 C   0  0  0  0  0  0  0  0  0  0  0  0
    1.8420   -0.0888    0.2952 C   0  0  0  0  0  0  0  0  0  0  0  0
    3.1814    0.1764   -0.3934 C   0  0  0  0  0  0  0  0  0  0  0  0
    3.9149    1.3443    0.2466 C   0  0  0  0  0  0  0  0  0  0  0  0
  1  2  1  0  0  0  0
  1  3  1  0  0  0  0
  4  2  1  0  0  0  0
  2  5  2  0  0  0  0
  6  3  2  0  0  0  0
  7  4  1  0  0  0  0
  5  6  1  0  0  0  0
  7  8  1  0  0  0  0
  8  9  1  0  0  0  0
  9 10  1  0  0  0  0
M  END
>  <Name>
2-pentylfuran

>  <IGC50>
3.92

>  <CAS>
3777-69-3

>  <SET>
ws

>  <Species>
Tetrahymena pyriformis

>  <Test duration>
48h

$$$$

  Mrv1808 07152009202D          

 13 15  0  0  0  0            999 V2000
    2.3164   -1.3287    0.0000 C   0  0  0  0  0  0  0  0  0  0  0  0
    1.5072   -1.1582    0.0000 C   0  0  0  0  0  0  0  0  0  0  0  0
    2.7289   -0.6148    0.0000 C   0  0  0  0  0  0  0  0  0  0  0  0
    2.7289   -2.0427    0.0000 C   0  0  0  0  0  0  0  0  0  0  0  0
    1.4200   -0.3371    0.0000 C   0  0  0  0  0  0  0  0  0  0  0  0
    0.8409   -1.6421    0.0000 C   0  0  0  0  0  0  0  0  0  0  0  0
    2.1775    0.0000    0.0000 N   0  0  0  0  0  0  0  0  0  0  0  0
    3.5539   -0.6148    0.0000 C   0  0  0  0  0  0  0  0  0  0  0  0
    3.5539   -2.0427    0.0000 C   0  0  0  0  0  0  0  0  0  0  0  0
    0.6663    0.0000    0.0000 C   0  0  0  0  0  0  0  0  0  0  0  0
    0.0872   -1.3049    0.0000 C   0  0  0  0  0  0  0  0  0  0  0  0
    3.9664   -1.3287    0.0000 C   0  0  0  0  0  0  0  0  0  0  0  0
    0.0000   -0.4839    0.0000 C   0  0  0  0  0  0  0  0  0  0  0  0
  1  2  1  0  0  0  0
  1  3  1  0  0  0  0
  1  4  2  0  0  0  0
  2  5  2  0  0  0  0
  2  6  1  0  0  0  0
  7  3  1  0  0  0  0
  3  8  2  0  0  0  0
  9  4  1  0  0  0  0
  5 10  1  0  0  0  0
  5  7  1  0  0  0  0
 11  6  2  0  0  0  0
  8 12  1  0  0  0  0
 12  9  2  0  0  0  0
 10 13  2  0  0  0  0
 13 11  1  0  0  0  0
M  END
>  <Name>
9H-Carbazole

>  <IGC50>
3.91

>  <CAS>
86-74-8

>  <SET>
ws

>  <Species>
Tetrahymena pyriformis

>  <Test duration>
48h

$$$$

  Mrv1808 07152009202D          

 11 11  0  0  0  0            999 V2000
    3.3001   -0.8250    0.0000 C   0  0  0  0  0  0  0  0  0  0  0  0
    2.4751   -0.8250    0.0000 C   0  0  0  0  0  0  0  0  0  0  0  0
    3.3001    0.0000    0.0000 C   0  0  0  0  0  0  0  0  0  0  0  0
    4.1251   -0.8250    0.0000 C   0  0  0  0  0  0  0  0  0  0  0  0
    3.3001   -1.6501    0.0000 C   0  0  0  0  0  0  0  0  0  0  0  0
    2.0626   -1.5387    0.0000 C   0  0  0  0  0  0  0  0  0  0  0  0
    2.0626   -0.1114    0.0000 C   0  0  0  0  0  0  0  0  0  0  0  0
    1.2375   -1.5387    0.0000 C   0  0  0  0  0  0  0  0  0  0  0  0
    1.2375   -0.1114    0.0000 C   0  0  0  0  0  0  0  0  0  0  0  0
    0.8250   -0.8250    0.0000 C   0  0  0  0  0  0  0  0  0  0  0  0
    0.0000   -0.8250    0.0000 O   0  0  0  0  0  0  0  0  0  0  0  0
  1  2  1  0  0  0  0
  1  3  1  0  0  0  0
  1  4  1  0  0  0  0
  1  5  1  0  0  0  0
  2  6  2  0  0  0  0
  2  7  1  0  0  0  0
  6  8  1  0  0  0  0
  9  7  2  0  0  0  0
  8 10  2  0  0  0  0
 10  9  1  0  0  0  0
 10 11  1  0  0  0  0
M  END
>  <Name>
Phenol, 4-(1,1-dimethylethyl)-

>  <IGC50>
3.91

>  <CAS>
98-54-4

>  <SET>
ws

>  <Species>
Tetrahymena pyriformis

>  <Test duration>
48h

$$$$

  Mrv1808 07152009202D          

  6  5  0  0  0  0            999 V2000
    0.8250   -1.4309    0.0000 C   0  0  0  0  0  0  0  0  0  0  0  0
    1.2427   -0.7154    0.0000 C   0  0  0  0  0  0  0  0  0  0  0  0
    0.0000   -1.4309    0.0000 O   0  0  0  0  0  0  0  0  0  0  0  0
    0.8250    0.0000    0.0000 C   0  0  0  0  0  0  0  0  0  0  0  0
    2.0677   -0.7154    0.0000 C   0  0  0  0  0  0  0  0  0  0  0  0
    0.0000    0.0000    0.0000 C   0  0  0  0  0  0  0  0  0  0  0  0
  1  2  1  0  0  0  0
  1  3  2  0  0  0  0
  2  4  1  0  0  0  0
  2  5  2  0  0  0  0
  4  6  1  0  0  0  0
M  END
>  <Name>
Butanal, 2-methylene- (9CI)

>  <IGC50>
3.91

>  <CAS>
922-63-4

>  <SET>
ws

>  <Species>
Tetrahymena pyriformis

>  <Test duration>
48h

$$$$

  Mrv1808 07152009202D          

  9  9  0  0  0  0            999 V2000
    2.1332    0.4183    0.0000 C   0  0  0  0  0  0  0  0  0  0  0  0
    2.1332    1.2548    0.0000 C   0  0  0  0  0  0  0  0  0  0  0  0
    1.4640    0.0000    0.0000 C   0  0  0  0  0  0  0  0  0  0  0  0
    1.4640    1.6313    0.0000 C   0  0  0  0  0  0  0  0  0  0  0  0
    2.8860    1.6313    0.0000 Br  0  0  0  0  0  0  0  0  0  0  0  0
    0.7529    0.4183    0.0000 C   0  0  0  0  0  0  0  0  0  0  0  0
    0.7529    1.2548    0.0000 C   0  0  0  0  0  0  0  0  0  0  0  0
    1.4640    2.4260    0.0000 N   0  0  0  0  0  0  0  0  0  0  0  0
    0.0000    1.6313    0.0000 Br  0  0  0  0  0  0  0  0  0  0  0  0
  2  1  2  0  0  0  0
  1  3  1  0  0  0  0
  4  2  1  0  0  0  0
  2  5  1  0  0  0  0
  3  6  2  0  0  0  0
  7  4  2  0  0  0  0
  4  8  1  0  0  0  0
  6  7  1  0  0  0  0
  7  9  1  0  0  0  0
M  END
>  <Name>
2,6-Dibromoaniline

>  <IGC50>
3.9

>  <CAS>
608-30-0

>  <SET>
ws

>  <Species>
Tetrahymena pyriformis

>  <Test duration>
48h

$$$$

  Mrv1808 07152009202D          

 13 12  0  0  0  0            999 V2000
    5.7091    0.0000    0.0000 O   0  0  0  0  0  0  0  0  0  0  0  0
    6.4227   -0.4139    0.0000 C   0  0  0  0  0  0  0  0  0  0  0  0
    7.1364    0.0000    0.0000 O   0  0  0  0  0  0  0  0  0  0  0  0
    6.4227   -1.2346    0.0000 C   0  0  0  0  0  0  0  0  0  0  0  0
    5.7091   -1.6485    0.0000 C   0  0  0  0  0  0  0  0  0  0  0  0
    4.9955   -1.2346    0.0000 C   0  0  0  0  0  0  0  0  0  0  0  0
    4.2818   -1.6485    0.0000 C   0  0  0  0  0  0  0  0  0  0  0  0
    3.5682   -1.2346    0.0000 C   0  0  0  0  0  0  0  0  0  0  0  0
    2.8546   -1.6485    0.0000 C   0  0  0  0  0  0  0  0  0  0  0  0
    2.1409   -1.2346    0.0000 C   0  0  0  0  0  0  0  0  0  0  0  0
    1.4273   -1.6485    0.0000 C   0  0  0  0  0  0  0  0  0  0  0  0
    0.7136   -1.2346    0.0000 C   0  0  0  0  0  0  0  0  0  0  0  0
    0.0000   -1.6485    0.0000 C   0  0  0  0  0  0  0  0  0  0  0  0
  1  2  2  0  0  0  0
  2  3  1  0  0  0  0
  2  4  1  0  0  0  0
  4  5  1  0  0  0  0
  5  6  1  0  0  0  0
  6  7  1  0  0  0  0
  7  8  1  0  0  0  0
  8  9  1  0  0  0  0
  9 10  1  0  0  0  0
 10 11  1  0  0  0  0
 11 12  1  0  0  0  0
 12 13  1  0  0  0  0
M  END
>  <Name>
Undecanoic acid

>  <IGC50>
3.898

>  <CAS>
112-37-8

>  <SET>
ws

>  <Species>
Tetrahymena pyriformis

>  <Test duration>
48h

$$$$

  Mrv1808 07152009203D          

 12 13  0  0  0  0            999 V2000
    5.4671    4.2827    2.0773 C   0  0  0  0  0  0  0  0  0  0  0  0
    6.2146    5.0361    0.9968 C   0  0  0  0  0  0  0  0  0  0  0  0
    3.9855    4.3768    1.8869 C   0  0  0  0  0  0  0  0  0  0  0  0
    3.3415    5.5569    2.1756 C   0  0  0  0  0  0  0  0  0  0  0  0
    3.2314    3.2610    1.4106 C   0  0  0  0  0  0  0  0  0  0  0  0
    1.9470    5.6875    1.9988 C   0  0  0  0  0  0  0  0  0  0  0  0
    1.8377    3.3994    1.2315 C   0  0  0  0  0  0  0  0  0  0  0  0
    3.8354    2.0087    1.1114 C   0  0  0  0  0  0  0  0  0  0  0  0
    1.2069    4.6351    1.5339 C   0  0  0  0  0  0  0  0  0  0  0  0
    1.0804    2.2967    0.7496 C   0  0  0  0  0  0  0  0  0  0  0  0
    3.0868    0.9616    0.6499 C   0  0  0  0  0  0  0  0  0  0  0  0
    1.6925    1.1071    0.4639 C   0  0  0  0  0  0  0  0  0  0  0  0
  1  2  1  0  0  0  0
  1  3  1  0  0  0  0
  4  3  2  0  0  0  0
  3  5  1  0  0  0  0
  6  4  1  0  0  0  0
  7  5  2  0  0  0  0
  5  8  1  0  0  0  0
  9  6  2  0  0  0  0
  7  9  1  0  0  0  0
 10  7  1  0  0  0  0
  8 11  2  0  0  0  0
 12 10  2  0  0  0  0
 11 12  1  0  0  0  0
M  END
>  <Name>
1-ethylnaphthalene

>  <IGC50>
3.89

>  <CAS>
1127-76-0

>  <SET>
ws

>  <Species>
Tetrahymena pyriformis

>  <Test duration>
48h

$$$$

  Mrv1808 07152009202D          

 11 11  0  0  0  0            999 V2000
    2.8862    1.4222    0.0000 C   0  0  0  0  0  0  0  0  0  0  0  0
    2.4679    2.1333    0.0000 C   0  0  0  0  0  0  0  0  0  0  0  0
    2.4679    0.7111    0.0000 C   0  0  0  0  0  0  0  0  0  0  0  0
    3.7228    1.4222    0.0000 O   0  0  0  0  0  0  0  0  0  0  0  0
    1.6732    2.1333    0.0000 C   0  0  0  0  0  0  0  0  0  0  0  0
    2.8862    2.8444    0.0000 Br  0  0  0  0  0  0  0  0  0  0  0  0
    1.6732    0.7111    0.0000 C   0  0  0  0  0  0  0  0  0  0  0  0
    2.8862    0.0000    0.0000 Br  0  0  0  0  0  0  0  0  0  0  0  0
    1.2548    1.4222    0.0000 C   0  0  0  0  0  0  0  0  0  0  0  0
    0.4183    1.4222    0.0000 C   0  0  0  0  0  0  0  0  0  0  0  0
    0.0000    2.1333    0.0000 O   0  0  0  0  0  0  0  0  0  0  0  0
  2  1  2  0  0  0  0
  1  3  1  0  0  0  0
  1  4  1  0  0  0  0
  5  2  1  0  0  0  0
  2  6  1  0  0  0  0
  3  7  2  0  0  0  0
  3  8  1  0  0  0  0
  9  5  2  0  0  0  0
  7  9  1  0  0  0  0
  9 10  1  0  0  0  0
 10 11  2  0  0  0  0
M  END
>  <Name>
3,5-Dibromo-4-hydroxybenzaldehyde

>  <IGC50>
3.89

>  <CAS>
2973-77-5

>  <SET>
ws

>  <Species>
Tetrahymena pyriformis

>  <Test duration>
48h

$$$$

  Mrv1808 07152009203D          

 10 10  0  0  0  0            999 V2000
    2.4897   -0.0687   -0.0003 O   0  0  0  0  0  0  0  0  0  0  0  0
    1.1254   -0.0369    0.0000 C   0  0  0  0  0  0  0  0  0  0  0  0
    0.4594    1.1888   -0.0001 C   0  0  0  0  0  0  0  0  0  0  0  0
    0.3969   -1.2265    0.0002 C   0  0  0  0  0  0  0  0  0  0  0  0
   -0.9350    1.2251    0.0000 C   0  0  0  0  0  0  0  0  0  0  0  0
    1.2216    2.4730    0.0002 C   0  0  0  0  0  0  0  0  0  0  0  0
    1.0571   -2.4747    0.0000 N   0  0  0  0  0  0  0  0  0  0  0  0
   -0.9976   -1.1902    0.0001 C   0  0  0  0  0  0  0  0  0  0  0  0
   -1.6634    0.0356    0.0001 C   0  0  0  0  0  0  0  0  0  0  0  0
   -3.1542    0.0744   -0.0002 C   0  0  0  0  0  0  0  0  0  0  0  0
  1  2  1  0  0  0  0
  3  2  2  0  0  0  0
  2  4  1  0  0  0  0
  3  5  1  0  0  0  0
  3  6  1  0  0  0  0
  7  4  1  0  0  0  0
  4  8  2  0  0  0  0
  9  5  2  0  0  0  0
  9  8  1  0  0  0  0
  9 10  1  0  0  0  0
M  END
>  <Name>
2-amino-4,6-dimethylphenol

>  <IGC50>
3.89

>  <CAS>
41458-65-5

>  <SET>
ws

>  <Species>
Tetrahymena pyriformis

>  <Test duration>
48h

$$$$

  Mrv1808 07152009202D          

 10 10  0  0  0  0            999 V2000
    2.5185    0.7816    0.0000 C   0  0  0  0  0  0  0  0  0  0  0  0
    1.6935    0.7816    0.0000 C   0  0  0  0  0  0  0  0  0  0  0  0
    2.9527    1.4764    0.0000 C   0  0  0  0  0  0  0  0  0  0  0  0
    1.2592    1.4764    0.0000 C   0  0  0  0  0  0  0  0  0  0  0  0
    1.2592    0.0000    0.0000 Cl  0  0  0  0  0  0  0  0  0  0  0  0
    2.5185    2.2145    0.0000 C   0  0  0  0  0  0  0  0  0  0  0  0
    3.8211    1.4764    0.0000 O   0  0  0  0  0  0  0  0  0  0  0  0
    1.6935    2.2145    0.0000 C   0  0  0  0  0  0  0  0  0  0  0  0
    0.3908    1.4764    0.0000 C   0  0  0  0  0  0  0  0  0  0  0  0
    0.0000    0.7816    0.0000 O   0  0  0  0  0  0  0  0  0  0  0  0
  2  1  2  0  0  0  0
  1  3  1  0  0  0  0
  4  2  1  0  0  0  0
  2  5  1  0  0  0  0
  3  6  2  0  0  0  0
  3  7  1  0  0  0  0
  8  4  2  0  0  0  0
  4  9  1  0  0  0  0
  6  8  1  0  0  0  0
  9 10  2  0  0  0  0
M  END
>  <Name>
2-Chloro-4-hydroxybenzaldehyde

>  <IGC50>
3.89

>  <CAS>
56962-11-9

>  <SET>
ws

>  <Species>
Tetrahymena pyriformis

>  <Test duration>
48h

$$$$

  Mrv1808 07152009202D          

  6  5  0  0  0  0            999 V2000
    0.0000    0.8366    0.0000 Cl  0  0  0  0  0  0  0  0  0  0  0  0
    0.7530    1.2549    0.0000 C   0  0  0  0  0  0  0  0  0  0  0  0
    1.4641    0.8366    0.0000 C   0  0  0  0  0  0  0  0  0  0  0  0
    2.1752    1.2549    0.0000 O   0  0  0  0  0  0  0  0  0  0  0  0
    1.4641    0.0000    0.0000 O   0  0  0  0  0  0  0  0  0  0  0  0
    2.8863    0.8366    0.0000 C   0  0  0  0  0  0  0  0  0  0  0  0
  1  2  1  0  0  0  0
  2  3  1  0  0  0  0
  3  4  1  0  0  0  0
  3  5  2  0  0  0  0
  4  6  1  0  0  0  0
M  END
>  <Name>
Acetic acid, 2-chloro-, methyl ester

>  <IGC50>
3.886

>  <CAS>
96-34-4

>  <SET>
ws

>  <Species>
Tetrahymena pyriformis

>  <Test duration>
48h

$$$$

  Mrv1808 07152009202D          

 17 18  0  0  0  0            999 V2000
    3.3002    1.4439    0.0000 C   0  0  0  0  0  0  0  0  0  0  0  0
    2.4752    1.4439    0.0000 C   0  0  0  0  0  0  0  0  0  0  0  0
    3.7128    2.1452    0.0000 C   0  0  0  0  0  0  0  0  0  0  0  0
    3.7128    0.7425    0.0000 O   0  0  0  0  0  0  0  0  0  0  0  0
    2.0627    0.7425    0.0000 C   0  0  0  0  0  0  0  0  0  0  0  0
    2.0627    2.1452    0.0000 C   0  0  0  0  0  0  0  0  0  0  0  0
    3.3002    2.8877    0.0000 C   0  0  0  0  0  0  0  0  0  0  0  0
    4.5379    2.1452    0.0000 C   0  0  0  0  0  0  0  0  0  0  0  0
    1.2376    0.7425    0.0000 C   0  0  0  0  0  0  0  0  0  0  0  0
    2.4752    0.0000    0.0000 O   0  0  0  0  0  0  0  0  0  0  0  0
    1.2376    2.1452    0.0000 C   0  0  0  0  0  0  0  0  0  0  0  0
    3.7128    3.5891    0.0000 C   0  0  0  0  0  0  0  0  0  0  0  0
    4.9504    2.8877    0.0000 C   0  0  0  0  0  0  0  0  0  0  0  0
    0.8251    1.4439    0.0000 C   0  0  0  0  0  0  0  0  0  0  0  0
    0.8251    0.0000    0.0000 O   0  0  0  0  0  0  0  0  0  0  0  0
    4.5379    3.5891    0.0000 C   0  0  0  0  0  0  0  0  0  0  0  0
    0.0000    1.4439    0.0000 O   0  0  0  0  0  0  0  0  0  0  0  0
  1  2  1  0  0  0  0
  1  3  1  0  0  0  0
  1  4  2  0  0  0  0
  5  2  2  0  0  0  0
  2  6  1  0  0  0  0
  7  3  2  0  0  0  0
  3  8  1  0  0  0  0
  9  5  1  0  0  0  0
  5 10  1  0  0  0  0
  6 11  2  0  0  0  0
 12  7  1  0  0  0  0
  8 13  2  0  0  0  0
 14  9  2  0  0  0  0
  9 15  1  0  0  0  0
 11 14  1  0  0  0  0
 16 12  2  0  0  0  0
 13 16  1  0  0  0  0
 14 17  1  0  0  0  0
M  END
>  <Name>
Benzophenone, 2,3,4-trihydroxy- (8CI)

>  <IGC50>
3.88

>  <CAS>
1143-72-2

>  <SET>
ws

>  <Species>
Tetrahymena pyriformis

>  <Test duration>
48h

$$$$

  Mrv1808 07152009203D          

 14 15  0  0  0  0            999 V2000
    5.4652    4.3439    2.6913 O   0  0  0  0  0  0  0  0  0  0  0  0
    6.1346    3.2215    2.2863 C   0  0  0  0  0  0  0  0  0  0  0  0
    5.3647    2.1056    1.9135 C   0  0  0  0  0  0  0  0  0  0  0  0
    7.5353    3.1777    2.2260 C   0  0  0  0  0  0  0  0  0  0  0  0
    6.0221    0.9546    1.4776 C   0  0  0  0  0  0  0  0  0  0  0  0
    3.8948    2.1251    1.9632 C   0  0  0  0  0  0  0  0  0  0  0  0
    8.1623    2.0181    1.7897 C   0  0  0  0  0  0  0  0  0  0  0  0
    7.4098    0.9103    1.4138 C   0  0  0  0  0  0  0  0  0  0  0  0
    3.1832    1.6534    3.0822 C   0  0  0  0  0  0  0  0  0  0  0  0
    3.1800    2.6220    0.8739 C   0  0  0  0  0  0  0  0  0  0  0  0
    3.9101    1.1652    4.1332 O   0  0  0  0  0  0  0  0  0  0  0  0
    1.7811    1.6867    3.0989 C   0  0  0  0  0  0  0  0  0  0  0  0
    1.7895    2.6549    0.8909 C   0  0  0  0  0  0  0  0  0  0  0  0
    1.0944    2.1886    2.0008 C   0  0  0  0  0  0  0  0  0  0  0  0
  1  2  1  0  0  0  0
  3  2  2  0  0  0  0
  2  4  1  0  0  0  0
  5  3  1  0  0  0  0
  3  6  1  0  0  0  0
  4  7  2  0  0  0  0
  8  5  2  0  0  0  0
  6  9  2  0  0  0  0
 10  6  1  0  0  0  0
  7  8  1  0  0  0  0
  9 11  1  0  0  0  0
  9 12  1  0  0  0  0
 13 10  2  0  0  0  0
 12 14  2  0  0  0  0
 14 13  1  0  0  0  0
M  END
>  <Name>
(1,1'-Biphenyl)-2,2'-diol

>  <IGC50>
3.88

>  <CAS>
1806-29-7

>  <SET>
ws

>  <Species>
Tetrahymena pyriformis

>  <Test duration>
48h

$$$$

  Mrv1808 07152009202D          

 11 11  0  0  0  0            999 V2000
    1.2375   -2.8557    0.0000 O   0  0  0  0  0  0  0  0  0  0  0  0
    1.6471   -2.1433    0.0000 C   0  0  0  0  0  0  0  0  0  0  0  0
    1.2375   -1.4278    0.0000 C   0  0  0  0  0  0  0  0  0  0  0  0
    2.4721   -2.1433    0.0000 C   0  0  0  0  0  0  0  0  0  0  0  0
    1.6471   -0.7154    0.0000 C   0  0  0  0  0  0  0  0  0  0  0  0
    0.4125   -1.4278    0.0000 N   0  3  0  0  0  0  0  0  0  0  0  0
    2.8845   -1.4278    0.0000 C   0  0  0  0  0  0  0  0  0  0  0  0
    2.4721   -0.7154    0.0000 C   0  0  0  0  0  0  0  0  0  0  0  0
    0.0000   -2.1433    0.0000 O   0  0  0  0  0  0  0  0  0  0  0  0
    0.0000   -0.7154    0.0000 O   0  5  0  0  0  0  0  0  0  0  0  0
    2.8845    0.0000    0.0000 N   0  0  0  0  0  0  0  0  0  0  0  0
  1  2  1  0  0  0  0
  2  3  2  0  0  0  0
  2  4  1  0  0  0  0
  3  5  1  0  0  0  0
  3  6  1  0  0  0  0
  7  4  2  0  0  0  0
  5  8  2  0  0  0  0
  6  9  2  0  0  0  0
  6 10  1  0  0  0  0
  8  7  1  0  0  0  0
  8 11  1  0  0  0  0
M  CHG  2   6   1  10  -1
M  END
>  <Name>
Phenol, 4-amino-2-nitro-

>  <IGC50>
3.88

>  <CAS>
119-34-6

>  <SET>
ws

>  <Species>
Tetrahymena pyriformis

>  <Test duration>
48h

$$$$

  Mrv1808 07152009202D          

  8  8  0  0  0  0            999 V2000
    0.0000   -1.6500    0.0000 Cl  0  0  0  0  0  0  0  0  0  0  0  0
    0.7149   -1.2382    0.0000 C   0  0  0  0  0  0  0  0  0  0  0  0
    0.7149   -0.4118    0.0000 C   0  0  0  0  0  0  0  0  0  0  0  0
    1.4298   -1.6500    0.0000 C   0  0  0  0  0  0  0  0  0  0  0  0
    1.4298    0.0000    0.0000 C   0  0  0  0  0  0  0  0  0  0  0  0
    2.1447   -1.2382    0.0000 C   0  0  0  0  0  0  0  0  0  0  0  0
    2.1447   -0.4118    0.0000 C   0  0  0  0  0  0  0  0  0  0  0  0
    2.8596   -1.6500    0.0000 O   0  0  0  0  0  0  0  0  0  0  0  0
  1  2  1  0  0  0  0
  2  3  2  0  0  0  0
  2  4  1  0  0  0  0
  3  5  1  0  0  0  0
  6  4  2  0  0  0  0
  5  7  2  0  0  0  0
  7  6  1  0  0  0  0
  6  8  1  0  0  0  0
M  END
>  <Name>
Phenol, 3-chloro-

>  <IGC50>
3.87

>  <CAS>
108-43-0

>  <SET>
ws

>  <Species>
Tetrahymena pyriformis

>  <Test duration>
48h

$$$$

  Mrv1808 07152009202D          

  9  9  0  0  0  0            999 V2000
    0.8264   -1.4298    0.0000 C   0  0  0  0  0  0  0  0  0  0  0  0
    1.2382   -0.7149    0.0000 C   0  0  0  0  0  0  0  0  0  0  0  0
    1.2382   -2.1446    0.0000 C   0  0  0  0  0  0  0  0  0  0  0  0
    0.0000   -1.4298    0.0000 Cl  0  0  0  0  0  0  0  0  0  0  0  0
    2.0646   -0.7149    0.0000 C   0  0  0  0  0  0  0  0  0  0  0  0
    2.0646   -2.1446    0.0000 C   0  0  0  0  0  0  0  0  0  0  0  0
    2.4763   -1.4298    0.0000 C   0  0  0  0  0  0  0  0  0  0  0  0
    2.4763    0.0000    0.0000 Cl  0  0  0  0  0  0  0  0  0  0  0  0
    2.4763   -2.8595    0.0000 Cl  0  0  0  0  0  0  0  0  0  0  0  0
  1  2  2  0  0  0  0
  1  3  1  0  0  0  0
  1  4  1  0  0  0  0
  2  5  1  0  0  0  0
  6  3  2  0  0  0  0
  5  7  2  0  0  0  0
  5  8  1  0  0  0  0
  7  6  1  0  0  0  0
  6  9  1  0  0  0  0
M  END
>  <Name>
Benzene, 1,3,5-trichloro-

>  <IGC50>
3.87

>  <CAS>
108-70-3

>  <SET>
ws

>  <Species>
Tetrahymena pyriformis

>  <Test duration>
48h

$$$$

  Mrv1808 07152009202D          

 13 13  0  0  0  0            999 V2000
    3.5677    0.0000    0.0000 C   0  0  0  0  0  0  0  0  0  0  0  0
    2.8567   -0.4112    0.0000 C   0  0  0  0  0  0  0  0  0  0  0  0
    2.8567   -1.2335    0.0000 C   0  0  0  0  0  0  0  0  0  0  0  0
    2.1415    0.0000    0.0000 C   0  0  0  0  0  0  0  0  0  0  0  0
    3.5677   -1.6490    0.0000 N   0  3  0  0  0  0  0  0  0  0  0  0
    2.1415   -1.6490    0.0000 C   0  0  0  0  0  0  0  0  0  0  0  0
    1.4262   -0.4112    0.0000 C   0  0  0  0  0  0  0  0  0  0  0  0
    4.2829   -1.2335    0.0000 O   0  5  0  0  0  0  0  0  0  0  0  0
    3.5677   -2.4713    0.0000 O   0  0  0  0  0  0  0  0  0  0  0  0
    1.4262   -1.2335    0.0000 C   0  0  0  0  0  0  0  0  0  0  0  0
    0.7152   -1.6490    0.0000 N   0  3  0  0  0  0  0  0  0  0  0  0
    0.0000   -1.2335    0.0000 O   0  5  0  0  0  0  0  0  0  0  0  0
    0.7152   -2.4713    0.0000 O   0  0  0  0  0  0  0  0  0  0  0  0
  1  2  1  0  0  0  0
  2  3  2  0  0  0  0
  2  4  1  0  0  0  0
  3  5  1  0  0  0  0
  3  6  1  0  0  0  0
  7  4  2  0  0  0  0
  5  8  1  0  0  0  0
  5  9  2  0  0  0  0
  6 10  2  0  0  0  0
 10  7  1  0  0  0  0
 10 11  1  0  0  0  0
 11 12  1  0  0  0  0
 11 13  2  0  0  0  0
M  CHG  4   5   1   8  -1  11   1  12  -1
M  END
>  <Name>
Benzene, 1-methyl-2,4-dinitro-

>  <IGC50>
3.87

>  <CAS>
121-14-2

>  <SET>
ws

>  <Species>
Tetrahymena pyriformis

>  <Test duration>
48h

$$$$

  Mrv1808 07152009202D          

  9  9  0  0  0  0            999 V2000
    0.0000    0.0000    0.0000 O   0  0  0  0  0  0  0  0  0  0  0  0
    0.8249    0.0000    0.0000 C   0  0  0  0  0  0  0  0  0  0  0  0
    1.2374   -0.7172    0.0000 C   0  0  0  0  0  0  0  0  0  0  0  0
    2.0662   -0.7172    0.0000 C   0  0  0  0  0  0  0  0  0  0  0  0
    2.4786    0.0000    0.0000 C   0  0  0  0  0  0  0  0  0  0  0  0
    2.4786   -1.4307    0.0000 C   0  0  0  0  0  0  0  0  0  0  0  0
    3.3036    0.0000    0.0000 C   0  0  0  0  0  0  0  0  0  0  0  0
    3.3036   -1.4307    0.0000 C   0  0  0  0  0  0  0  0  0  0  0  0
    3.7161   -0.7172    0.0000 C   0  0  0  0  0  0  0  0  0  0  0  0
  1  2  2  0  0  0  0
  2  3  1  0  0  0  0
  3  4  1  0  0  0  0
  4  5  2  0  0  0  0
  4  6  1  0  0  0  0
  5  7  1  0  0  0  0
  8  6  2  0  0  0  0
  7  9  2  0  0  0  0
  9  8  1  0  0  0  0
M  END
>  <Name>
Acetaldehyde, phenyl- (8CI)

>  <IGC50>
3.87

>  <CAS>
122-78-1

>  <SET>
ws

>  <Species>
Tetrahymena pyriformis

>  <Test duration>
48h

$$$$

  Mrv1808 07152009202D          

 13 13  0  0  0  0            999 V2000
    1.4640    0.4183    0.0000 C   0  0  0  0  0  0  0  0  0  0  0  0
    1.4640    1.2130    0.0000 C   0  0  0  0  0  0  0  0  0  0  0  0
    0.7529    0.0000    0.0000 C   0  0  0  0  0  0  0  0  0  0  0  0
    0.7529    1.6313    0.0000 C   0  0  0  0  0  0  0  0  0  0  0  0
    2.2168    1.6313    0.0000 C   0  0  0  0  0  0  0  0  0  0  0  0
    0.0000    0.4183    0.0000 C   0  0  0  0  0  0  0  0  0  0  0  0
    0.0000    1.2130    0.0000 C   0  0  0  0  0  0  0  0  0  0  0  0
    2.9279    1.2130    0.0000 C   0  0  0  0  0  0  0  0  0  0  0  0
    3.5972    1.6313    0.0000 C   0  0  0  0  0  0  0  0  0  0  0  0
    4.3500    1.2130    0.0000 C   0  0  0  0  0  0  0  0  0  0  0  0
    5.0611    1.6313    0.0000 C   0  0  0  0  0  0  0  0  0  0  0  0
    5.7722    1.2130    0.0000 C   0  0  0  0  0  0  0  0  0  0  0  0
    6.5250    1.6313    0.0000 O   0  0  0  0  0  0  0  0  0  0  0  0
  2  1  2  0  0  0  0
  1  3  1  0  0  0  0
  4  2  1  0  0  0  0
  2  5  1  0  0  0  0
  3  6  2  0  0  0  0
  7  4  2  0  0  0  0
  5  8  1  0  0  0  0
  6  7  1  0  0  0  0
  9  8  1  0  0  0  0
 10  9  1  0  0  0  0
 11 10  1  0  0  0  0
 11 12  1  0  0  0  0
 12 13  1  0  0  0  0
M  END
>  <Name>
Benzenehexanol

>  <IGC50>
3.87

>  <CAS>
2430-16-2

>  <SET>
ws

>  <Species>
Tetrahymena pyriformis

>  <Test duration>
48h

$$$$

  Mrv1808 07152009202D          

 15 15  0  0  0  0            999 V2000
    1.1962    1.4025    0.0000 C   0  0  0  0  0  0  0  0  0  0  0  0
    1.6500    2.1450    0.0000 N   0  0  0  0  0  0  0  0  0  0  0  0
    0.4125    1.4025    0.0000 C   0  0  0  0  0  0  0  0  0  0  0  0
    1.6088    0.7012    0.0000 O   0  0  0  0  0  0  0  0  0  0  0  0
    2.4750    2.1450    0.0000 C   0  0  0  0  0  0  0  0  0  0  0  0
    0.0000    0.7012    0.0000 Br  0  0  0  0  0  0  0  0  0  0  0  0
    2.8875    1.4025    0.0000 C   0  0  0  0  0  0  0  0  0  0  0  0
    2.8875    2.8462    0.0000 C   0  0  0  0  0  0  0  0  0  0  0  0
    3.7125    1.4025    0.0000 C   0  0  0  0  0  0  0  0  0  0  0  0
    2.4750    3.5475    0.0000 O   0  0  0  0  0  0  0  0  0  0  0  0
    3.7125    2.8462    0.0000 C   0  0  0  0  0  0  0  0  0  0  0  0
    4.0838    0.7012    0.0000 N   0  0  0  0  0  0  0  0  0  0  0  0
    4.1250    2.1450    0.0000 C   0  0  0  0  0  0  0  0  0  0  0  0
    3.6712    0.0000    0.0000 O   0  0  0  0  0  0  0  0  0  0  0  0
    4.9500    0.7012    0.0000 O   0  0  0  0  0  0  0  0  0  0  0  0
  1  2  1  0  0  0  0
  1  3  1  0  0  0  0
  1  4  2  0  0  0  0
  2  5  1  0  0  0  0
  3  6  1  0  0  0  0
  5  7  2  0  0  0  0
  8  5  1  0  0  0  0
  7  9  1  0  0  0  0
  8 10  1  0  0  0  0
 11  8  2  0  0  0  0
  9 12  1  0  0  0  0
  9 13  2  0  0  0  0
 13 11  1  0  0  0  0
 12 14  2  0  0  0  0
 12 15  2  0  0  0  0
M  END
>  <Name>
Acetanilide, 2-bromo-2'-hydroxy-5'-nitro- (8CI)

>  <IGC50>
3.87

>  <CAS>
3947-58-8

>  <SET>
ws

>  <Species>
Tetrahymena pyriformis

>  <Test duration>
48h

$$$$

  Mrv1808 07152009203D          

 10 10  0  0  0  0            999 V2000
   -0.3994   -2.4447   -0.0007 Cl  0  0  0  0  0  0  0  0  0  0  0  0
    0.4076   -0.9230    0.0003 C   0  0  0  0  0  0  0  0  0  0  0  0
    1.7550   -1.0323    0.0004 N   0  0  0  0  0  0  0  0  0  0  0  0
   -0.2728    0.2840    0.0003 C   0  0  0  0  0  0  0  0  0  0  0  0
    2.4514    0.1264    0.0001 C   0  0  0  0  0  0  0  0  0  0  0  0
   -1.6912    0.3621    0.0002 N   0  3  0  0  0  0  0  0  0  0  0  0
    0.4781    1.4542   -0.0002 C   0  0  0  0  0  0  0  0  0  0  0  0
    1.8668    1.3825   -0.0003 C   0  0  0  0  0  0  0  0  0  0  0  0
   -2.2375    1.4914   -0.0002 O   0  5  0  0  0  0  0  0  0  0  0  0
   -2.3581   -0.7005    0.0002 O   0  0  0  0  0  0  0  0  0  0  0  0
  1  2  1  0  0  0  0
  3  2  1  0  0  0  0
  4  2  2  0  0  0  0
  3  5  2  0  0  0  0
  6  4  1  0  0  0  0
  4  7  1  0  0  0  0
  8  5  1  0  0  0  0
  9  6  1  0  0  0  0
 10  6  2  0  0  0  0
  7  8  2  0  0  0  0
M  CHG  2   6   1   9  -1
M  END
>  <Name>
2-chloro-3-nitropyridine

>  <IGC50>
3.87

>  <CAS>
5470-18-8

>  <SET>
ws

>  <Species>
Tetrahymena pyriformis

>  <Test duration>
48h

$$$$

  Mrv1808 07152009202D          

 10 10  0  0  0  0            999 V2000
    1.6478   -2.1412    0.0000 N   0  0  0  0  0  0  0  0  0  0  0  0
    1.2380   -1.4285    0.0000 C   0  0  0  0  0  0  0  0  0  0  0  0
    2.4731   -2.1412    0.0000 C   0  0  0  0  0  0  0  0  0  0  0  0
    0.4127   -1.4285    0.0000 N   0  3  0  0  0  0  0  0  0  0  0  0
    1.6478   -0.7128    0.0000 C   0  0  0  0  0  0  0  0  0  0  0  0
    2.8857   -1.4285    0.0000 C   0  0  0  0  0  0  0  0  0  0  0  0
    0.0000   -0.7128    0.0000 O   0  5  0  0  0  0  0  0  0  0  0  0
    0.0000   -2.1412    0.0000 O   0  0  0  0  0  0  0  0  0  0  0  0
    1.2380    0.0000    0.0000 O   0  0  0  0  0  0  0  0  0  0  0  0
    2.4731   -0.7128    0.0000 C   0  0  0  0  0  0  0  0  0  0  0  0
  1  2  2  0  0  0  0
  1  3  1  0  0  0  0
  2  4  1  0  0  0  0
  2  5  1  0  0  0  0
  6  3  2  0  0  0  0
  4  7  1  0  0  0  0
  4  8  2  0  0  0  0
  5  9  1  0  0  0  0
  5 10  2  0  0  0  0
 10  6  1  0  0  0  0
M  CHG  2   4   1   7  -1
M  END
>  <Name>
3-Pyridinol, 2-nitro-

>  <IGC50>
3.87

>  <CAS>
15128-82-2

>  <SET>
ws

>  <Species>
Tetrahymena pyriformis

>  <Test duration>
48h

$$$$

  Mrv1808 07152009203D          

  8  7  0  0  0  0            999 V2000
   -4.0931   -0.3325   -0.1342 O   0  0  0  0  0  0  0  0  0  0  0  0
   -3.0423    0.0898    0.3329 C   0  0  0  0  0  0  0  0  0  0  0  0
   -1.7396   -0.1826   -0.3054 C   0  0  0  0  0  0  0  0  0  0  0  0
   -0.6269    0.3075    0.2546 C   0  0  0  0  0  0  0  0  0  0  0  0
    0.6891    0.0887   -0.3032 C   0  0  0  0  0  0  0  0  0  0  0  0
    1.8107    0.5748    0.2492 C   0  0  0  0  0  0  0  0  0  0  0  0
    3.1805    0.3583   -0.3246 C   0  0  0  0  0  0  0  0  0  0  0  0
    3.8214   -0.9040    0.2307 C   0  0  0  0  0  0  0  0  0  0  0  0
  1  2  2  0  0  0  0
  3  2  1  0  0  0  0
  4  3  2  0  0  0  0
  5  4  1  0  0  0  0
  6  5  2  0  0  0  0
  7  6  1  0  0  0  0
  7  8  1  0  0  0  0
M  END
>  <Name>
(2E,4E)-hepta-2,4-dienal

>  <IGC50>
3.862

>  <CAS>
4313-03-5

>  <SET>
ws

>  <Species>
Tetrahymena pyriformis

>  <Test duration>
48h

$$$$

  Mrv1808 07152009203D          

 12 11  0  0  0  0            999 V2000
   -0.8194   -0.8678   -0.4318 N   0  0  0  0  0  0  0  0  0  0  0  0
    0.3043   -1.4827    0.1244 C   0  0  0  0  0  0  0  0  0  0  0  0
   -1.6302    0.1615    0.2639 C   0  0  0  0  0  0  0  0  0  0  0  0
    0.7638   -2.9939   -0.3647 S   0  0  0  0  0  0  0  0  0  0  0  0
    1.0145   -0.7927    1.1543 N   0  0  0  0  0  0  0  0  0  0  0  0
   -2.9988    0.3180   -0.3886 C   0  0  0  0  0  0  0  0  0  0  0  0
    1.4458    0.6159    0.9898 C   0  0  0  0  0  0  0  0  0  0  0  0
   -3.7982    1.4087    0.3077 C   0  0  0  0  0  0  0  0  0  0  0  0
    2.6485    0.7865    0.0661 C   0  0  0  0  0  0  0  0  0  0  0  0
   -5.1620    1.5772   -0.3230 C   0  0  0  0  0  0  0  0  0  0  0  0
    3.0789    2.2436    0.0118 C   0  0  0  0  0  0  0  0  0  0  0  0
    4.2700    2.4314   -0.9004 C   0  0  0  0  0  0  0  0  0  0  0  0
  1  2  1  0  0  0  0
  1  3  1  0  0  0  0
  2  4  2  0  0  0  0
  2  5  1  0  0  0  0
  3  6  1  0  0  0  0
  5  7  1  0  0  0  0
  6  8  1  0  0  0  0
  7  9  1  0  0  0  0
  8 10  1  0  0  0  0
  9 11  1  0  0  0  0
 11 12  1  0  0  0  0
M  END
>  <Name>
Urea,1,3-dibutyl-2-thio- (8CI)

>  <IGC50>
3.86

>  <CAS>
109-46-6

>  <SET>
ws

>  <Species>
Tetrahymena pyriformis

>  <Test duration>
48h

$$$$

  Mrv1808 07152009202D          

 10  9  0  0  0  0            999 V2000
    2.3907    0.1111    0.0000 S   0  0  0  0  0  0  0  0  0  0  0  0
    2.3907   -0.7139    0.0000 C   0  0  0  0  0  0  0  0  0  0  0  0
    3.1052   -1.1264    0.0000 N   0  0  0  0  0  0  0  0  0  0  0  0
    1.6763   -1.1264    0.0000 N   0  0  0  0  0  0  0  0  0  0  0  0
    0.9618   -0.7139    0.0000 C   0  0  0  0  0  0  0  0  0  0  0  0
    0.2473   -0.3014    0.0000 C   0  0  0  0  0  0  0  0  0  0  0  0
   -0.4672    0.1111    0.0000 C   0  0  0  0  0  0  0  0  0  0  0  0
   -1.1816    0.5236    0.0000 C   0  0  0  0  0  0  0  0  0  0  0  0
   -1.8961    0.9361    0.0000 C   0  0  0  0  0  0  0  0  0  0  0  0
   -2.6106    1.3486    0.0000 C   0  0  0  0  0  0  0  0  0  0  0  0
  1  2  2  0  0  0  0
  2  3  1  0  0  0  0
  2  4  1  0  0  0  0
  4  5  1  0  0  0  0
  5  6  1  0  0  0  0
  6  7  1  0  0  0  0
  7  8  1  0  0  0  0
  8  9  1  0  0  0  0
  9 10  1  0  0  0  0
M  END
>  <Name>
Urea, 1-hexyl-2-thio- (6CI,7CI,8CI)

>  <IGC50>
3.86

>  <CAS>
21071-27-2

>  <SET>
ws

>  <Species>
Tetrahymena pyriformis

>  <Test duration>
48h

$$$$

  Mrv1808 07152009202D          

 12 12  0  0  0  0            999 V2000
    2.8876    2.4751    0.0000 O   0  0  0  0  0  0  0  0  0  0  0  0
    2.8876    1.6501    0.0000 N   0  0  0  0  0  0  0  0  0  0  0  0
    3.7126    1.6501    0.0000 O   0  0  0  0  0  0  0  0  0  0  0  0
    2.1451    1.2375    0.0000 C   0  0  0  0  0  0  0  0  0  0  0  0
    1.4438    1.6501    0.0000 C   0  0  0  0  0  0  0  0  0  0  0  0
    2.1451    0.4125    0.0000 C   0  0  0  0  0  0  0  0  0  0  0  0
    1.4438    2.4751    0.0000 C   0  0  0  0  0  0  0  0  0  0  0  0
    0.7425    1.2375    0.0000 C   0  0  0  0  0  0  0  0  0  0  0  0
    2.8876    0.0000    0.0000 C   0  0  0  0  0  0  0  0  0  0  0  0
    1.4438    0.0000    0.0000 C   0  0  0  0  0  0  0  0  0  0  0  0
    0.7425    0.4125    0.0000 C   0  0  0  0  0  0  0  0  0  0  0  0
    0.0000    0.0000    0.0000 C   0  0  0  0  0  0  0  0  0  0  0  0
  1  2  2  0  0  0  0
  2  3  2  0  0  0  0
  2  4  1  0  0  0  0
  5  4  2  0  0  0  0
  4  6  1  0  0  0  0
  7  5  1  0  0  0  0
  8  5  1  0  0  0  0
  9  6  1  0  0  0  0
  6 10  2  0  0  0  0
 11  8  2  0  0  0  0
 10 11  1  0  0  0  0
 12 11  1  0  0  0  0
M  END
>  <Name>
Mesitylene, 2-nitro- (8CI)

>  <IGC50>
3.86

>  <CAS>
603-71-4

>  <SET>
ws

>  <Species>
Tetrahymena pyriformis

>  <Test duration>
48h

$$$$

  Mrv1808 07152009202D          

 11 10  0  0  0  0            999 V2000
    3.5971    1.2548    0.0000 C   0  0  0  0  0  0  0  0  0  0  0  0
    2.8861    0.8365    0.0000 C   0  0  0  0  0  0  0  0  0  0  0  0
    4.3500    0.8365    0.0000 O   0  0  0  0  0  0  0  0  0  0  0  0
    3.5971    2.0913    0.0000 O   0  0  0  0  0  0  0  0  0  0  0  0
    2.1750    1.2548    0.0000 C   0  0  0  0  0  0  0  0  0  0  0  0
    2.8861    0.0000    0.0000 Br  0  0  0  0  0  0  0  0  0  0  0  0
    5.0610    1.2548    0.0000 C   0  0  0  0  0  0  0  0  0  0  0  0
    1.4221    0.8365    0.0000 C   0  0  0  0  0  0  0  0  0  0  0  0
    5.7722    0.8365    0.0000 C   0  0  0  0  0  0  0  0  0  0  0  0
    0.7110    1.2548    0.0000 C   0  0  0  0  0  0  0  0  0  0  0  0
    0.0000    0.8365    0.0000 C   0  0  0  0  0  0  0  0  0  0  0  0
  1  2  1  0  0  0  0
  1  3  1  0  0  0  0
  1  4  2  0  0  0  0
  2  5  1  0  0  0  0
  2  6  1  0  0  0  0
  3  7  1  0  0  0  0
  5  8  1  0  0  0  0
  7  9  1  0  0  0  0
  8 10  1  0  0  0  0
 10 11  1  0  0  0  0
M  END
>  <Name>
Hexanoic acid, 2-bromo-, ethyl ester

>  <IGC50>
3.86

>  <CAS>
615-96-3

>  <SET>
ws

>  <Species>
Tetrahymena pyriformis

>  <Test duration>
48h

$$$$

  Mrv1808 07152009202D          

 10  9  0  0  0  0            999 V2000
    0.0000   -0.4121    0.0000 C   0  0  0  0  0  0  0  0  0  0  0  0
    0.7147    0.0000    0.0000 C   0  0  0  0  0  0  0  0  0  0  0  0
    1.4295   -0.4121    0.0000 C   0  0  0  0  0  0  0  0  0  0  0  0
    2.1442    0.0000    0.0000 C   0  0  0  0  0  0  0  0  0  0  0  0
    2.8589   -0.4121    0.0000 C   0  0  0  0  0  0  0  0  0  0  0  0
    3.5801    0.0000    0.0000 C   0  0  0  0  0  0  0  0  0  0  0  0
    4.2949   -0.4121    0.0000 C   0  0  0  0  0  0  0  0  0  0  0  0
    5.0096    0.0000    0.0000 C   0  0  0  0  0  0  0  0  0  0  0  0
    5.7243   -0.4121    0.0000 C   0  0  0  0  0  0  0  0  0  0  0  0
    6.4391    0.0000    0.0000 O   0  0  0  0  0  0  0  0  0  0  0  0
  1  2  1  0  0  0  0
  2  3  1  0  0  0  0
  3  4  1  0  0  0  0
  4  5  1  0  0  0  0
  5  6  1  0  0  0  0
  6  7  1  0  0  0  0
  7  8  1  0  0  0  0
  8  9  1  0  0  0  0
  9 10  1  0  0  0  0
M  END
>  <Name>
Nonyl alcohol

>  <IGC50>
3.855

>  <CAS>
143-08-8

>  <SET>
ws

>  <Species>
Tetrahymena pyriformis

>  <Test duration>
48h

$$$$

  Mrv1808 07152009202D          

  9  9  0  0  0  0            999 V2000
    0.0000   -1.4298    0.0000 O   0  0  0  0  0  0  0  0  0  0  0  0
    0.8264   -1.4298    0.0000 C   0  0  0  0  0  0  0  0  0  0  0  0
    1.2382   -0.7149    0.0000 C   0  0  0  0  0  0  0  0  0  0  0  0
    1.2382   -2.1446    0.0000 C   0  0  0  0  0  0  0  0  0  0  0  0
    0.8264    0.0000    0.0000 O   0  0  0  0  0  0  0  0  0  0  0  0
    2.0646   -0.7149    0.0000 C   0  0  0  0  0  0  0  0  0  0  0  0
    2.0646   -2.1446    0.0000 C   0  0  0  0  0  0  0  0  0  0  0  0
    0.8264   -2.8595    0.0000 O   0  0  0  0  0  0  0  0  0  0  0  0
    2.4763   -1.4298    0.0000 C   0  0  0  0  0  0  0  0  0  0  0  0
  1  2  1  0  0  0  0
  2  3  2  0  0  0  0
  2  4  1  0  0  0  0
  3  5  1  0  0  0  0
  3  6  1  0  0  0  0
  7  4  2  0  0  0  0
  4  8  1  0  0  0  0
  6  9  2  0  0  0  0
  9  7  1  0  0  0  0
M  END
>  <Name>
1,2,3-Benzenetriol

>  <IGC50>
3.85

>  <CAS>
87-66-1

>  <SET>
ws

>  <Species>
Tetrahymena pyriformis

>  <Test duration>
48h

$$$$

  Mrv1808 07152009202D          

 14 14  0  0  0  0            999 V2000
    0.0000   -1.2335    0.0000 O   0  0  0  0  0  0  0  0  0  0  0  0
    0.7153   -1.6490    0.0000 N   0  3  0  0  0  0  0  0  0  0  0  0
    0.7153   -2.4714    0.0000 O   0  5  0  0  0  0  0  0  0  0  0  0
    1.4263   -1.2335    0.0000 C   0  0  0  0  0  0  0  0  0  0  0  0
    1.4263   -0.4112    0.0000 C   0  0  0  0  0  0  0  0  0  0  0  0
    2.1416   -1.6490    0.0000 C   0  0  0  0  0  0  0  0  0  0  0  0
    2.1416    0.0000    0.0000 C   0  0  0  0  0  0  0  0  0  0  0  0
    0.7153    0.0000    0.0000 Cl  0  0  0  0  0  0  0  0  0  0  0  0
    2.8568   -1.2335    0.0000 C   0  0  0  0  0  0  0  0  0  0  0  0
    2.8568   -0.4112    0.0000 C   0  0  0  0  0  0  0  0  0  0  0  0
    3.5678   -1.6490    0.0000 C   0  0  0  0  0  0  0  0  0  0  0  0
    4.2831   -2.0602    0.0000 F   0  0  0  0  0  0  0  0  0  0  0  0
    3.1567   -2.3600    0.0000 F   0  0  0  0  0  0  0  0  0  0  0  0
    3.9833   -0.9337    0.0000 F   0  0  0  0  0  0  0  0  0  0  0  0
  1  2  2  0  0  0  0
  2  3  1  0  0  0  0
  2  4  1  0  0  0  0
  4  5  2  0  0  0  0
  4  6  1  0  0  0  0
  5  7  1  0  0  0  0
  5  8  1  0  0  0  0
  9  6  2  0  0  0  0
  7 10  2  0  0  0  0
 10  9  1  0  0  0  0
  9 11  1  0  0  0  0
 11 12  1  0  0  0  0
 11 13  1  0  0  0  0
 11 14  1  0  0  0  0
M  CHG  2   2   1   3  -1
M  END
>  <Name>
Toluene, 4-chloro-alpha,alpha,alpha-trifluoro-3-nitro- (8CI)

>  <IGC50>
3.85

>  <CAS>
121-17-5

>  <SET>
ws

>  <Species>
Tetrahymena pyriformis

>  <Test duration>
48h

$$$$

  Mrv1808 07152009202D          

 12 12  0  0  0  0            999 V2000
    1.4438    1.6500    0.0000 O   0  0  0  0  0  0  0  0  0  0  0  0
    0.7425    1.2375    0.0000 C   0  0  0  0  0  0  0  0  0  0  0  0
    2.1450    1.2375    0.0000 C   0  0  0  0  0  0  0  0  0  0  0  0
    0.0000    1.6500    0.0000 C   0  0  0  0  0  0  0  0  0  0  0  0
    2.8876    1.6500    0.0000 C   0  0  0  0  0  0  0  0  0  0  0  0
    2.1450    0.4125    0.0000 C   0  0  0  0  0  0  0  0  0  0  0  0
    2.8876    2.4750    0.0000 O   0  0  0  0  0  0  0  0  0  0  0  0
    3.5888    1.2375    0.0000 C   0  0  0  0  0  0  0  0  0  0  0  0
    2.8876    0.0000    0.0000 C   0  0  0  0  0  0  0  0  0  0  0  0
    4.2901    1.6913    0.0000 C   0  0  0  0  0  0  0  0  0  0  0  0
    3.5888    0.4125    0.0000 C   0  0  0  0  0  0  0  0  0  0  0  0
    5.0326    1.2787    0.0000 O   0  0  0  0  0  0  0  0  0  0  0  0
  1  2  1  0  0  0  0
  1  3  1  0  0  0  0
  2  4  1  0  0  0  0
  3  5  2  0  0  0  0
  6  3  1  0  0  0  0
  5  7  1  0  0  0  0
  5  8  1  0  0  0  0
  9  6  2  0  0  0  0
  8 10  1  0  0  0  0
  8 11  2  0  0  0  0
 11  9  1  0  0  0  0
 10 12  2  0  0  0  0
M  END
>  <Name>
Salicylaldehyde, 3-ethoxy- (8CI)

>  <IGC50>
3.85

>  <CAS>
492-88-6

>  <SET>
ws

>  <Species>
Tetrahymena pyriformis

>  <Test duration>
48h

$$$$

  Mrv1808 07152009202D          

 10 10  0  0  0  0            999 V2000
    0.0000    1.4222    0.0000 C   0  0  0  0  0  0  0  0  0  0  0  0
    0.4183    0.7111    0.0000 C   0  0  0  0  0  0  0  0  0  0  0  0
    0.0000    0.0000    0.0000 C   0  0  0  0  0  0  0  0  0  0  0  0
    1.2549    0.7111    0.0000 C   0  0  0  0  0  0  0  0  0  0  0  0
    1.6732    1.4222    0.0000 C   0  0  0  0  0  0  0  0  0  0  0  0
    1.6732    0.0000    0.0000 C   0  0  0  0  0  0  0  0  0  0  0  0
    2.5098    1.4222    0.0000 C   0  0  0  0  0  0  0  0  0  0  0  0
    2.5098    0.0000    0.0000 C   0  0  0  0  0  0  0  0  0  0  0  0
    2.9281    0.7111    0.0000 C   0  0  0  0  0  0  0  0  0  0  0  0
    3.7647    0.7111    0.0000 Br  0  0  0  0  0  0  0  0  0  0  0  0
  1  2  1  0  0  0  0
  2  3  1  0  0  0  0
  2  4  1  0  0  0  0
  5  4  2  0  0  0  0
  4  6  1  0  0  0  0
  7  5  1  0  0  0  0
  6  8  2  0  0  0  0
  9  7  2  0  0  0  0
  8  9  1  0  0  0  0
  9 10  1  0  0  0  0
M  END
>  <Name>
1-bromo-4-propan-2-ylbenzene

>  <IGC50>
3.85

>  <CAS>
586-61-8

>  <SET>
ws

>  <Species>
Tetrahymena pyriformis

>  <Test duration>
48h

$$$$

  Mrv1808 07152009202D          

  8  8  0  0  0  0            999 V2000
    0.0000    0.7110    0.0000 I   0  0  0  0  0  0  0  0  0  0  0  0
    0.8365    0.7110    0.0000 C   0  0  0  0  0  0  0  0  0  0  0  0
    1.2548    1.4221    0.0000 C   0  0  0  0  0  0  0  0  0  0  0  0
    1.2548    0.0000    0.0000 C   0  0  0  0  0  0  0  0  0  0  0  0
    2.0913    1.4221    0.0000 C   0  0  0  0  0  0  0  0  0  0  0  0
    2.0913    0.0000    0.0000 C   0  0  0  0  0  0  0  0  0  0  0  0
    2.5096    0.7110    0.0000 C   0  0  0  0  0  0  0  0  0  0  0  0
    3.3461    0.7110    0.0000 O   0  0  0  0  0  0  0  0  0  0  0  0
  1  2  1  0  0  0  0
  3  2  2  0  0  0  0
  2  4  1  0  0  0  0
  5  3  1  0  0  0  0
  4  6  2  0  0  0  0
  7  5  2  0  0  0  0
  6  7  1  0  0  0  0
  7  8  1  0  0  0  0
M  END
>  <Name>
Phenol, 4-iodo-

>  <IGC50>
3.85

>  <CAS>
540-38-5

>  <SET>
ws

>  <Species>
Tetrahymena pyriformis

>  <Test duration>
48h

$$$$

  Mrv1808 07152009202D          

  4  3  0  0  0  0            999 V2000
    0.0000   -0.7136    0.0000 N   0  0  0  0  0  0  0  0  0  0  0  0
    0.8250   -0.7136    0.0000 C   0  0  0  0  0  0  0  0  0  0  0  0
    1.6500   -0.7136    0.0000 C   0  0  0  0  0  0  0  0  0  0  0  0
    2.0625    0.0000    0.0000 Cl  0  0  0  0  0  0  0  0  0  0  0  0
  1  2  3  0  0  0  0
  2  3  1  0  0  0  0
  3  4  1  0  0  0  0
M  END
>  <Name>
Acetonitrile, chloro-

>  <IGC50>
3.845

>  <CAS>
107-14-2

>  <SET>
ws

>  <Species>
Tetrahymena pyriformis

>  <Test duration>
48h

$$$$

  Mrv1808 07152009202D          

 13 13  0  0  0  0            999 V2000
    3.6391    2.5097    0.0000 O   0  0  0  0  0  0  0  0  0  0  0  0
    3.6391    1.7150    0.0000 N   0  0  0  0  0  0  0  0  0  0  0  0
    4.3502    1.2967    0.0000 O   0  0  0  0  0  0  0  0  0  0  0  0
    2.8862    1.2548    0.0000 C   0  0  0  0  0  0  0  0  0  0  0  0
    2.1751    1.6731    0.0000 C   0  0  0  0  0  0  0  0  0  0  0  0
    2.8862    0.4183    0.0000 C   0  0  0  0  0  0  0  0  0  0  0  0
    2.1751    2.5097    0.0000 N   0  0  0  0  0  0  0  0  0  0  0  0
    1.4640    1.2548    0.0000 C   0  0  0  0  0  0  0  0  0  0  0  0
    2.1751    0.0000    0.0000 C   0  0  0  0  0  0  0  0  0  0  0  0
    0.7111    1.6731    0.0000 N   0  0  0  0  0  0  0  0  0  0  0  0
    1.4640    0.4183    0.0000 C   0  0  0  0  0  0  0  0  0  0  0  0
    0.7111    2.5097    0.0000 O   0  0  0  0  0  0  0  0  0  0  0  0
    0.0000    1.2548    0.0000 O   0  0  0  0  0  0  0  0  0  0  0  0
  1  2  2  0  0  0  0
  2  3  2  0  0  0  0
  2  4  1  0  0  0  0
  5  4  2  0  0  0  0
  4  6  1  0  0  0  0
  5  7  1  0  0  0  0
  8  5  1  0  0  0  0
  6  9  2  0  0  0  0
  8 10  1  0  0  0  0
 11  8  2  0  0  0  0
  9 11  1  0  0  0  0
 10 12  2  0  0  0  0
 10 13  2  0  0  0  0
M  END
>  <Name>
Benzenamine, 2,6-dinitro- (9CI)

>  <IGC50>
3.84

>  <CAS>
606-22-4

>  <SET>
ws

>  <Species>
Tetrahymena pyriformis

>  <Test duration>
48h

$$$$

  Mrv1808 07152009203D          

 11 12  0  0  0  0            999 V2000
    1.1618    0.6781    0.0002 N   0  0  0  0  0  0  0  0  0  0  0  0
   -0.2001    0.4768    0.0003 C   0  0  0  0  0  0  0  0  0  0  0  0
    1.8169   -0.5241   -0.0004 C   0  0  0  0  0  0  0  0  0  0  0  0
    1.8073    1.9750   -0.0018 C   0  0  0  0  0  0  0  0  0  0  0  0
   -0.4116   -0.9037   -0.0004 C   0  0  0  0  0  0  0  0  0  0  0  0
   -1.2504    1.4017    0.0008 C   0  0  0  0  0  0  0  0  0  0  0  0
    0.8699   -1.5223   -0.0007 C   0  0  0  0  0  0  0  0  0  0  0  0
    3.2913   -0.6196    0.0019 C   0  0  0  0  0  0  0  0  0  0  0  0
   -1.7350   -1.3871   -0.0008 C   0  0  0  0  0  0  0  0  0  0  0  0
   -2.5545    0.8989    0.0008 C   0  0  0  0  0  0  0  0  0  0  0  0
   -2.7955   -0.4737    0.0001 C   0  0  0  0  0  0  0  0  0  0  0  0
  1  2  1  0  0  0  0
  1  3  1  0  0  0  0
  1  4  1  0  0  0  0
  2  5  1  0  0  0  0
  2  6  2  0  0  0  0
  3  7  2  0  0  0  0
  3  8  1  0  0  0  0
  5  7  1  0  0  0  0
  5  9  2  0  0  0  0
  6 10  1  0  0  0  0
  9 11  1  0  0  0  0
 10 11  2  0  0  0  0
M  END
>  <Name>
1,2-dimethylindole

>  <IGC50>
3.84

>  <CAS>
875-79-6

>  <SET>
ws

>  <Species>
Tetrahymena pyriformis

>  <Test duration>
48h

$$$$

  Mrv1808 07152009202D          

 13 13  0  0  0  0            999 V2000
    2.1415   -2.4713    0.0000 O   0  0  0  0  0  0  0  0  0  0  0  0
    2.1415   -1.6489    0.0000 C   0  0  0  0  0  0  0  0  0  0  0  0
    1.4262   -1.2335    0.0000 C   0  0  0  0  0  0  0  0  0  0  0  0
    2.8568   -1.2335    0.0000 C   0  0  0  0  0  0  0  0  0  0  0  0
    0.7152   -1.6489    0.0000 N   0  3  0  0  0  0  0  0  0  0  0  0
    1.4262   -0.4111    0.0000 C   0  0  0  0  0  0  0  0  0  0  0  0
    2.8568   -0.4111    0.0000 C   0  0  0  0  0  0  0  0  0  0  0  0
    3.5678   -1.6489    0.0000 N   0  3  0  0  0  0  0  0  0  0  0  0
    0.0000   -1.2335    0.0000 O   0  5  0  0  0  0  0  0  0  0  0  0
    0.7152   -2.4713    0.0000 O   0  0  0  0  0  0  0  0  0  0  0  0
    2.1415    0.0000    0.0000 C   0  0  0  0  0  0  0  0  0  0  0  0
    4.2830   -1.2335    0.0000 O   0  5  0  0  0  0  0  0  0  0  0  0
    3.5678   -2.4713    0.0000 O   0  0  0  0  0  0  0  0  0  0  0  0
  1  2  1  0  0  0  0
  2  3  2  0  0  0  0
  2  4  1  0  0  0  0
  3  5  1  0  0  0  0
  3  6  1  0  0  0  0
  7  4  2  0  0  0  0
  4  8  1  0  0  0  0
  5  9  1  0  0  0  0
  5 10  2  0  0  0  0
  6 11  2  0  0  0  0
 11  7  1  0  0  0  0
  8 12  1  0  0  0  0
  8 13  2  0  0  0  0
M  CHG  4   5   1   8   1   9  -1  12  -1
M  END
>  <Name>
Phenol, 2,6-dinitro-

>  <IGC50>
3.83

>  <CAS>
573-56-8

>  <SET>
ws

>  <Species>
Tetrahymena pyriformis

>  <Test duration>
48h

$$$$

  Mrv1808 07152009202D          

 13 13  0  0  0  0            999 V2000
    1.2340   -1.4267    0.0000 C   0  0  0  0  0  0  0  0  0  0  0  0
    0.4113   -1.4267    0.0000 C   0  0  0  0  0  0  0  0  0  0  0  0
    1.6453   -0.7152    0.0000 C   0  0  0  0  0  0  0  0  0  0  0  0
    1.6453   -2.1418    0.0000 C   0  0  0  0  0  0  0  0  0  0  0  0
    0.0000   -0.7152    0.0000 O   0  0  0  0  0  0  0  0  0  0  0  0
    1.2340    0.0000    0.0000 F   0  0  0  0  0  0  0  0  0  0  0  0
    2.4717   -0.7152    0.0000 C   0  0  0  0  0  0  0  0  0  0  0  0
    2.4717   -2.1418    0.0000 C   0  0  0  0  0  0  0  0  0  0  0  0
    1.2340   -2.8533    0.0000 F   0  0  0  0  0  0  0  0  0  0  0  0
    2.8830    0.0000    0.0000 F   0  0  0  0  0  0  0  0  0  0  0  0
    2.8830   -1.4267    0.0000 C   0  0  0  0  0  0  0  0  0  0  0  0
    2.8830   -2.8533    0.0000 F   0  0  0  0  0  0  0  0  0  0  0  0
    3.7057   -1.4267    0.0000 F   0  0  0  0  0  0  0  0  0  0  0  0
  1  2  1  0  0  0  0
  1  3  2  0  0  0  0
  1  4  1  0  0  0  0
  2  5  2  0  0  0  0
  3  6  1  0  0  0  0
  3  7  1  0  0  0  0
  8  4  2  0  0  0  0
  4  9  1  0  0  0  0
  7 10  1  0  0  0  0
  7 11  2  0  0  0  0
 11  8  1  0  0  0  0
  8 12  1  0  0  0  0
 11 13  1  0  0  0  0
M  END
>  <Name>
Benzaldehyde, pentafluoro- (8CI)(9CI)

>  <IGC50>
3.82

>  <CAS>
653-37-2

>  <SET>
ws

>  <Species>
Tetrahymena pyriformis

>  <Test duration>
48h

$$$$

  Mrv1808 07152009203D          

 14 15  0  0  0  0            999 V2000
    0.6100   -2.7694   -0.5102 O   0  0  0  0  0  0  0  0  0  0  0  0
    0.7836   -1.9955    0.6690 C   0  0  0  0  0  0  0  0  0  0  0  0
    1.3951   -0.6793    0.3095 C   0  0  0  0  0  0  0  0  0  0  0  0
    0.6059    0.4268   -0.0114 C   0  0  0  0  0  0  0  0  0  0  0  0
    2.7858   -0.5726    0.2990 C   0  0  0  0  0  0  0  0  0  0  0  0
   -0.8385    0.3423   -0.0080 C   0  0  0  0  0  0  0  0  0  0  0  0
    1.2123    1.6398   -0.3427 C   0  0  0  0  0  0  0  0  0  0  0  0
    3.3899    0.6403   -0.0322 C   0  0  0  0  0  0  0  0  0  0  0  0
   -1.5184   -0.0244   -1.1694 C   0  0  0  0  0  0  0  0  0  0  0  0
   -1.5510    0.6271    1.1567 C   0  0  0  0  0  0  0  0  0  0  0  0
    2.6032    1.7465   -0.3530 C   0  0  0  0  0  0  0  0  0  0  0  0
   -2.9110   -0.1060   -1.1661 C   0  0  0  0  0  0  0  0  0  0  0  0
   -2.9435    0.5454    1.1602 C   0  0  0  0  0  0  0  0  0  0  0  0
   -3.6234    0.1789   -0.0013 C   0  0  0  0  0  0  0  0  0  0  0  0
  1  2  1  0  0  0  0
  3  2  1  0  0  0  0
  4  3  1  0  0  0  0
  3  5  2  0  0  0  0
  4  6  1  0  0  0  0
  4  7  2  0  0  0  0
  5  8  1  0  0  0  0
  6  9  2  0  0  0  0
  6 10  1  0  0  0  0
  7 11  1  0  0  0  0
 11  8  2  0  0  0  0
  9 12  1  0  0  0  0
 10 13  2  0  0  0  0
 12 14  2  0  0  0  0
 13 14  1  0  0  0  0
M  END
>  <Name>
(2-phenylphenyl)methanol

>  <IGC50>
3.82

>  <CAS>
2928-43-0

>  <SET>
ws

>  <Species>
Tetrahymena pyriformis

>  <Test duration>
48h

$$$$

  Mrv1808 07152009203D          

  7  6  0  0  0  0            999 V2000
    3.2993   -0.0001    0.1913 O   0  0  0  0  0  0  0  0  0  0  0  0
    2.2189    0.0000   -0.3862 C   0  0  0  0  0  0  0  0  0  0  0  0
    0.9408    0.0001    0.3505 C   0  0  0  0  0  0  0  0  0  0  0  0
   -0.2083   -0.0001   -0.3365 C   0  0  0  0  0  0  0  0  0  0  0  0
   -1.5656    0.0000    0.3214 C   0  0  1  0  0  0  0  0  0  0  0  0
   -2.3424    1.2565   -0.0703 C   0  0  0  0  0  0  0  0  0  0  0  0
   -2.3426   -1.2565   -0.0702 C   0  0  0  0  0  0  0  0  0  0  0  0
  1  2  2  0  0  0  0
  3  2  1  0  0  0  0
  4  3  2  0  0  0  0
  5  4  1  0  0  0  0
  5  6  1  0  0  0  0
  5  7  1  0  0  0  0
M  END
>  <Name>
(E)-4-methylpent-2-enal

>  <IGC50>
3.82

>  <CAS>
5362-56-1

>  <SET>
ws

>  <Species>
Tetrahymena pyriformis

>  <Test duration>
48h

$$$$

  Mrv1808 07152009202D          

 14 14  0  0  0  0            999 V2000
    1.6453   -1.4267    0.0000 C   0  0  0  0  0  0  0  0  0  0  0  0
    1.2340   -0.7115    0.0000 N   0  3  0  0  0  0  0  0  0  0  0  0
    2.4718   -1.4267    0.0000 C   0  0  0  0  0  0  0  0  0  0  0  0
    1.2340   -2.1382    0.0000 C   0  0  0  0  0  0  0  0  0  0  0  0
    1.6453    0.0000    0.0000 O   0  0  0  0  0  0  0  0  0  0  0  0
    0.4114   -0.7115    0.0000 O   0  5  0  0  0  0  0  0  0  0  0  0
    2.8831   -2.1382    0.0000 C   0  0  0  0  0  0  0  0  0  0  0  0
    1.6453   -2.8534    0.0000 C   0  0  0  0  0  0  0  0  0  0  0  0
    0.4114   -2.1382    0.0000 C   0  0  0  0  0  0  0  0  0  0  0  0
    3.7057   -2.1382    0.0000 Cl  0  0  0  0  0  0  0  0  0  0  0  0
    2.4718   -2.8534    0.0000 C   0  0  0  0  0  0  0  0  0  0  0  0
    0.0000   -1.4267    0.0000 O   0  0  0  0  0  0  0  0  0  0  0  0
    0.0000   -2.8534    0.0000 O   0  0  0  0  0  0  0  0  0  0  0  0
    0.4114   -3.5649    0.0000 C   0  0  0  0  0  0  0  0  0  0  0  0
  1  2  1  0  0  0  0
  1  3  2  0  0  0  0
  1  4  1  0  0  0  0
  2  5  2  0  0  0  0
  2  6  1  0  0  0  0
  3  7  1  0  0  0  0
  8  4  2  0  0  0  0
  4  9  1  0  0  0  0
  7 10  1  0  0  0  0
  7 11  2  0  0  0  0
 11  8  1  0  0  0  0
  9 12  2  0  0  0  0
  9 13  1  0  0  0  0
 13 14  1  0  0  0  0
M  CHG  2   2   1   6  -1
M  END
>  <Name>
Methyl 4-chloro-2-nitrobenzoate

>  <IGC50>
3.82

>  <CAS>
42087-80-9

>  <SET>
ws

>  <Species>
Tetrahymena pyriformis

>  <Test duration>
48h

$$$$

  Mrv1808 07152009203D          

  9  8  0  0  0  0            999 V2000
    1.4204    0.3793    0.0125 O   0  0  0  0  0  0  0  0  0  0  0  0
    2.8425    0.2190   -0.0094 C   0  0  0  0  0  0  0  0  0  0  0  0
    0.7034   -0.7756   -0.0103 C   0  0  0  0  0  0  0  0  0  0  0  0
    3.4932    1.5855    0.0200 C   0  0  0  0  0  0  0  0  0  0  0  0
    1.1388   -1.9168   -0.0469 O   0  0  0  0  0  0  0  0  0  0  0  0
   -0.7139   -0.5260    0.0149 C   0  0  0  0  0  0  0  0  0  0  0  0
   -1.8965   -0.3176    0.0355 C   0  0  0  0  0  0  0  0  0  0  0  0
   -3.3424   -0.0651    0.0607 C   0  0  0  0  0  0  0  0  0  0  0  0
   -3.6457    1.4173   -0.0770 C   0  0  0  0  0  0  0  0  0  0  0  0
  1  2  1  0  0  0  0
  1  3  1  0  0  0  0
  2  4  1  0  0  0  0
  5  3  2  0  0  0  0
  3  6  1  0  0  0  0
  7  6  3  0  0  0  0
  8  7  1  0  0  0  0
  8  9  1  0  0  0  0
M  END
>  <Name>
ethyl pent-2-ynoate

>  <IGC50>
3.82

>  <CAS>
55314-57-3

>  <SET>
ws

>  <Species>
Tetrahymena pyriformis

>  <Test duration>
48h

$$$$

  Mrv1808 07152009203D          

 11 11  0  0  0  0            999 V2000
   -0.8682    1.2976   -0.0760 C   0  0  0  0  0  0  0  0  0  0  0  0
   -0.7848   -0.1006   -0.0049 C   0  0  0  0  0  0  0  0  0  0  0  0
    0.3169    2.0419   -0.0938 C   0  0  0  0  0  0  0  0  0  0  0  0
   -2.1674    2.0178   -0.1398 C   0  0  0  0  0  0  0  0  0  0  0  0
    0.4595   -0.7368    0.0352 C   0  0  0  0  0  0  0  0  0  0  0  0
   -2.0125   -0.9676    0.0261 N   0  3  0  0  0  0  0  0  0  0  0  0
    1.5548    1.4186   -0.0431 C   0  0  0  0  0  0  0  0  0  0  0  0
    1.6201    0.0273    0.0193 C   0  0  0  0  0  0  0  0  0  0  0  0
   -2.1680   -1.7902   -0.8521 O   0  0  0  0  0  0  0  0  0  0  0  0
   -2.8107   -0.8384    0.9311 O   0  5  0  0  0  0  0  0  0  0  0  0
    3.1191   -0.7357    0.0738 Cl  0  0  0  0  0  0  0  0  0  0  0  0
  1  2  1  0  0  0  0
  1  3  2  0  0  0  0
  1  4  1  0  0  0  0
  2  5  2  0  0  0  0
  2  6  1  0  0  0  0
  3  7  1  0  0  0  0
  8  5  1  0  0  0  0
  6  9  2  0  0  0  0
  6 10  1  0  0  0  0
  8  7  2  0  0  0  0
  8 11  1  0  0  0  0
M  CHG  2   6   1  10  -1
M  END
>  <Name>
Toluene, 4-chloro-2-nitro- (8CI)

>  <IGC50>
3.82

>  <CAS>
89-59-8

>  <SET>
ws

>  <Species>
Tetrahymena pyriformis

>  <Test duration>
48h

$$$$

  Mrv1808 07152009202D          

 11 12  0  0  0  0            999 V2000
    0.0000   -0.9608    0.0000 C   0  0  0  0  0  0  0  0  0  0  0  0
    0.0000   -1.7897    0.0000 C   0  0  0  0  0  0  0  0  0  0  0  0
    0.7171   -0.5536    0.0000 C   0  0  0  0  0  0  0  0  0  0  0  0
    0.7171   -2.2056    0.0000 C   0  0  0  0  0  0  0  0  0  0  0  0
    1.4312   -0.9666    0.0000 C   0  0  0  0  0  0  0  0  0  0  0  0
    1.4312   -1.7926    0.0000 C   0  0  0  0  0  0  0  0  0  0  0  0
    2.1540   -0.5593    0.0000 C   0  0  0  0  0  0  0  0  0  0  0  0
    2.1540   -2.2085    0.0000 C   0  0  0  0  0  0  0  0  0  0  0  0
    2.8681   -0.9723    0.0000 C   0  0  0  0  0  0  0  0  0  0  0  0
    2.1597    0.0000    0.0000 Cl  0  0  0  0  0  0  0  0  0  0  0  0
    2.8681   -1.7954    0.0000 C   0  0  0  0  0  0  0  0  0  0  0  0
  1  2  1  0  0  0  0
  1  3  2  0  0  0  0
  2  4  2  0  0  0  0
  5  3  1  0  0  0  0
  4  6  1  0  0  0  0
  6  5  1  0  0  0  0
  5  7  2  0  0  0  0
  6  8  2  0  0  0  0
  9  7  1  0  0  0  0
  7 10  1  0  0  0  0
  8 11  1  0  0  0  0
 11  9  2  0  0  0  0
M  END
>  <Name>
Naphthalene, 1-chloro-

>  <IGC50>
3.81

>  <CAS>
90-13-1

>  <SET>
ws

>  <Species>
Tetrahymena pyriformis

>  <Test duration>
48h

$$$$

  Mrv1808 07152009202D          

 10  9  0  0  0  0            999 V2000
    0.0000   -0.4121    0.0000 C   0  0  0  0  0  0  0  0  0  0  0  0
    0.7147    0.0000    0.0000 C   0  0  0  0  0  0  0  0  0  0  0  0
    1.4295   -0.4121    0.0000 C   0  0  0  0  0  0  0  0  0  0  0  0
    2.1442    0.0000    0.0000 C   0  0  0  0  0  0  0  0  0  0  0  0
    2.8589   -0.4121    0.0000 C   0  0  0  0  0  0  0  0  0  0  0  0
    3.5801    0.0000    0.0000 C   0  0  0  0  0  0  0  0  0  0  0  0
    4.2949   -0.4121    0.0000 C   0  0  0  0  0  0  0  0  0  0  0  0
    5.0096    0.0000    0.0000 C   0  0  0  0  0  0  0  0  0  0  0  0
    5.7243   -0.4121    0.0000 C   0  0  0  0  0  0  0  0  0  0  0  0
    6.4391    0.0000    0.0000 O   0  0  0  0  0  0  0  0  0  0  0  0
  1  2  1  0  0  0  0
  2  3  1  0  0  0  0
  3  4  1  0  0  0  0
  4  5  1  0  0  0  0
  5  6  1  0  0  0  0
  6  7  1  0  0  0  0
  7  8  1  0  0  0  0
  8  9  1  0  0  0  0
  9 10  2  0  0  0  0
M  END
>  <Name>
1-Nonanal

>  <IGC50>
3.808

>  <CAS>
124-19-6

>  <SET>
ws

>  <Species>
Tetrahymena pyriformis

>  <Test duration>
48h

$$$$

  Mrv1808 07152009202D          

  9  9  0  0  0  0            999 V2000
    2.8594   -1.6499    0.0000 O   0  0  0  0  0  0  0  0  0  0  0  0
    2.1445   -1.2381    0.0000 C   0  0  0  0  0  0  0  0  0  0  0  0
    1.4297   -1.6499    0.0000 C   0  0  0  0  0  0  0  0  0  0  0  0
    2.1445   -0.4118    0.0000 C   0  0  0  0  0  0  0  0  0  0  0  0
    0.7148   -1.2381    0.0000 C   0  0  0  0  0  0  0  0  0  0  0  0
    1.4297    0.0000    0.0000 C   0  0  0  0  0  0  0  0  0  0  0  0
    0.0000   -1.6499    0.0000 C   0  0  0  0  0  0  0  0  0  0  0  0
    0.7148   -0.4118    0.0000 C   0  0  0  0  0  0  0  0  0  0  0  0
    0.0000    0.0000    0.0000 Cl  0  0  0  0  0  0  0  0  0  0  0  0
  1  2  1  0  0  0  0
  2  3  2  0  0  0  0
  2  4  1  0  0  0  0
  3  5  1  0  0  0  0
  6  4  2  0  0  0  0
  5  7  1  0  0  0  0
  5  8  2  0  0  0  0
  8  6  1  0  0  0  0
  8  9  1  0  0  0  0
M  END
>  <Name>
Phenol, 4-chloro-3-methyl-

>  <IGC50>
3.8

>  <CAS>
59-50-7

>  <SET>
ws

>  <Species>
Tetrahymena pyriformis

>  <Test duration>
48h

$$$$

  Mrv1808 07152009202D          

 11 11  0  0  0  0            999 V2000
    2.4337    0.7013    0.0000 C   0  0  0  0  0  0  0  0  0  0  0  0
    1.6087    0.7013    0.0000 C   0  0  0  0  0  0  0  0  0  0  0  0
    2.8050    1.4025    0.0000 C   0  0  0  0  0  0  0  0  0  0  0  0
    2.8462    0.0000    0.0000 Cl  0  0  0  0  0  0  0  0  0  0  0  0
    1.2375    1.4025    0.0000 C   0  0  0  0  0  0  0  0  0  0  0  0
    2.4337    2.1450    0.0000 C   0  0  0  0  0  0  0  0  0  0  0  0
    3.6712    1.4025    0.0000 F   0  0  0  0  0  0  0  0  0  0  0  0
    1.6087    2.1450    0.0000 C   0  0  0  0  0  0  0  0  0  0  0  0
    0.3712    1.4025    0.0000 N   0  0  0  0  0  0  0  0  0  0  0  0
    0.0000    0.7013    0.0000 O   0  0  0  0  0  0  0  0  0  0  0  0
    0.0000    2.1450    0.0000 O   0  0  0  0  0  0  0  0  0  0  0  0
  2  1  2  0  0  0  0
  1  3  1  0  0  0  0
  1  4  1  0  0  0  0
  5  2  1  0  0  0  0
  3  6  2  0  0  0  0
  3  7  1  0  0  0  0
  8  5  2  0  0  0  0
  5  9  1  0  0  0  0
  6  8  1  0  0  0  0
  9 10  2  0  0  0  0
  9 11  2  0  0  0  0
M  END
>  <Name>
Benzene, 2-chloro-1-fluoro-4-nitro-

>  <IGC50>
3.8

>  <CAS>
350-30-1

>  <SET>
ws

>  <Species>
Tetrahymena pyriformis

>  <Test duration>
48h

$$$$

  Mrv1808 07152009203D          

 10 10  0  0  0  0            999 V2000
    1.2205   -2.7200    0.0018 Cl  0  0  0  0  0  0  0  0  0  0  0  0
    0.3885   -1.2081   -0.0006 C   0  0  0  0  0  0  0  0  0  0  0  0
    1.0864   -0.0004   -0.0007 C   0  0  0  0  0  0  0  0  0  0  0  0
   -1.0064   -1.2076   -0.0001 C   0  0  0  0  0  0  0  0  0  0  0  0
    2.4517   -0.0007   -0.0014 O   0  0  0  0  0  0  0  0  0  0  0  0
    0.3893    1.2079   -0.0006 C   0  0  0  0  0  0  0  0  0  0  0  0
   -1.7035    0.0005    0.0001 C   0  0  0  0  0  0  0  0  0  0  0  0
    1.2223    2.7194    0.0018 Cl  0  0  0  0  0  0  0  0  0  0  0  0
   -1.0057    1.2082   -0.0002 C   0  0  0  0  0  0  0  0  0  0  0  0
   -3.0430    0.0008    0.0000 F   0  0  0  0  0  0  0  0  0  0  0  0
  1  2  1  0  0  0  0
  3  2  2  0  0  0  0
  2  4  1  0  0  0  0
  5  3  1  0  0  0  0
  3  6  1  0  0  0  0
  4  7  2  0  0  0  0
  8  6  1  0  0  0  0
  6  9  2  0  0  0  0
 10  7  1  0  0  0  0
  9  7  1  0  0  0  0
M  END
>  <Name>
2,6-dichloro-4-fluorophenol

>  <IGC50>
3.8

>  <CAS>
392-71-2

>  <SET>
ws

>  <Species>
Tetrahymena pyriformis

>  <Test duration>
48h

$$$$

  Mrv1808 07152009203D          

 10 10  0  0  0  0            999 V2000
   -3.7122   -0.0613    0.0001 Cl  0  0  0  0  0  0  0  0  0  0  0  0
   -1.9983    0.0206   -0.0001 C   0  0  0  0  0  0  0  0  0  0  0  0
   -1.3719   -1.1774   -0.0001 N   0  0  0  0  0  0  0  0  0  0  0  0
   -1.3402    1.2399    0.0001 C   0  0  0  0  0  0  0  0  0  0  0  0
   -0.0204   -1.1483    0.0000 C   0  0  0  0  0  0  0  0  0  0  0  0
    0.0503    1.2289    0.0000 C   0  0  0  0  0  0  0  0  0  0  0  0
    0.7305    0.0162   -0.0002 C   0  0  0  0  0  0  0  0  0  0  0  0
    2.1470   -0.0272   -0.0001 N   0  3  0  0  0  0  0  0  0  0  0  0
    2.7911    1.0513    0.0001 O   0  5  0  0  0  0  0  0  0  0  0  0
    2.7240   -1.1429    0.0001 O   0  0  0  0  0  0  0  0  0  0  0  0
  1  2  1  0  0  0  0
  3  2  2  0  0  0  0
  4  2  1  0  0  0  0
  3  5  1  0  0  0  0
  6  4  2  0  0  0  0
  7  5  2  0  0  0  0
  7  6  1  0  0  0  0
  8  7  1  0  0  0  0
  9  8  1  0  0  0  0
 10  8  2  0  0  0  0
M  CHG  2   8   1   9  -1
M  END
>  <Name>
2-chloro-5-nitropyridine

>  <IGC50>
3.8

>  <CAS>
4548-45-2

>  <SET>
ws

>  <Species>
Tetrahymena pyriformis

>  <Test duration>
48h

$$$$

  Mrv1808 07152009202D          

 16 17  0  0  0  0            999 V2000
    4.5592    0.1673    0.0000 C   0  0  0  0  0  0  0  0  0  0  0  0
    3.7645    0.1673    0.0000 C   0  0  0  0  0  0  0  0  0  0  0  0
    5.0194    0.8784    0.0000 C   0  0  0  0  0  0  0  0  0  0  0  0
    3.3462    0.8784    0.0000 C   0  0  0  0  0  0  0  0  0  0  0  0
    4.5592    1.5476    0.0000 C   0  0  0  0  0  0  0  0  0  0  0  0
    3.7645    1.5476    0.0000 C   0  0  0  0  0  0  0  0  0  0  0  0
    2.5097    0.8784    0.0000 C   0  0  0  0  0  0  0  0  0  0  0  0
    1.6731    0.8784    0.0000 C   0  0  0  0  0  0  0  0  0  0  0  0
    2.5097    1.6731    0.0000 C   0  0  0  0  0  0  0  0  0  0  0  0
    2.5097    0.0000    0.0000 O   0  0  0  0  0  0  0  0  0  0  0  0
    1.2549    1.5476    0.0000 C   0  0  0  0  0  0  0  0  0  0  0  0
    1.6731    2.2587    0.0000 C   0  0  0  0  0  0  0  0  0  0  0  0
    0.4183    1.5476    0.0000 C   0  0  0  0  0  0  0  0  0  0  0  0
    1.2549    3.0116    0.0000 C   0  0  0  0  0  0  0  0  0  0  0  0
    0.0000    2.2587    0.0000 C   0  0  0  0  0  0  0  0  0  0  0  0
    0.4183    3.0116    0.0000 C   0  0  0  0  0  0  0  0  0  0  0  0
  2  1  2  0  0  0  0
  1  3  1  0  0  0  0
  4  2  1  0  0  0  0
  3  5  2  0  0  0  0
  6  4  2  0  0  0  0
  4  7  1  0  0  0  0
  5  6  1  0  0  0  0
  7  8  1  0  0  0  0
  7  9  1  0  0  0  0
  7 10  1  0  0  0  0
  8 11  1  0  0  0  0
 11 12  2  0  0  0  0
 13 11  1  0  0  0  0
 12 14  1  0  0  0  0
 15 13  2  0  0  0  0
 14 16  2  0  0  0  0
 16 15  1  0  0  0  0
M  END
>  <Name>
Benzeneethanol, alpha-methyl-alpha-phenyl-

>  <IGC50>
3.8

>  <CAS>
5342-87-0

>  <SET>
ws

>  <Species>
Tetrahymena pyriformis

>  <Test duration>
48h

$$$$

  Mrv1808 07152009202D          

 13 14  0  0  0  0            999 V2000
    1.4286   -3.3002    0.0000 O   0  0  0  0  0  0  0  0  0  0  0  0
    1.4286   -2.4751    0.0000 C   0  0  0  0  0  0  0  0  0  0  0  0
    0.7143   -2.0644    0.0000 C   0  0  0  0  0  0  0  0  0  0  0  0
    2.1429   -2.0644    0.0000 C   0  0  0  0  0  0  0  0  0  0  0  0
    0.0000   -2.4751    0.0000 O   0  0  0  0  0  0  0  0  0  0  0  0
    0.7143   -1.2394    0.0000 C   0  0  0  0  0  0  0  0  0  0  0  0
    2.1429   -1.2394    0.0000 C   0  0  0  0  0  0  0  0  0  0  0  0
    2.8573   -2.4751    0.0000 C   0  0  0  0  0  0  0  0  0  0  0  0
    1.4286   -0.8251    0.0000 C   0  0  0  0  0  0  0  0  0  0  0  0
    2.8573   -0.8251    0.0000 C   0  0  0  0  0  0  0  0  0  0  0  0
    3.5716   -2.0644    0.0000 C   0  0  0  0  0  0  0  0  0  0  0  0
    1.4286    0.0000    0.0000 O   0  0  0  0  0  0  0  0  0  0  0  0
    3.5716   -1.2394    0.0000 C   0  0  0  0  0  0  0  0  0  0  0  0
  1  2  2  0  0  0  0
  2  3  1  0  0  0  0
  2  4  1  0  0  0  0
  3  5  1  0  0  0  0
  3  6  2  0  0  0  0
  7  4  1  0  0  0  0
  8  4  2  0  0  0  0
  6  9  1  0  0  0  0
  9  7  1  0  0  0  0
  7 10  2  0  0  0  0
 11  8  1  0  0  0  0
  9 12  2  0  0  0  0
 10 13  1  0  0  0  0
 13 11  2  0  0  0  0
M  END
>  <Name>
1,4-Naphthalenedione, 2-hydroxy-

>  <IGC50>
3.8

>  <CAS>
83-72-7

>  <SET>
ws

>  <Species>
Tetrahymena pyriformis

>  <Test duration>
48h

$$$$

  Mrv1808 07152009203D          

  4  3  0  0  0  0            999 V2000
   -3.2423    0.2981   -0.2752 C   0  0  0  0  0  0  0  0  0  0  0  0
   -2.1044    0.1489    0.3973 C   0  0  0  0  0  0  0  0  0  0  0  0
   -1.1076   -0.8807    0.0722 C   0  0  0  0  0  0  0  0  0  0  0  0
    0.7035    0.0530   -0.0190 I   0  0  0  0  0  0  0  0  0  0  0  0
  1  2  2  0  0  0  0
  2  3  1  0  0  0  0
  3  4  1  0  0  0  0
M  END
>  <Name>
1-Propene, 3-iodo-

>  <IGC50>
3.796

>  <CAS>
556-56-9

>  <SET>
ws

>  <Species>
Tetrahymena pyriformis

>  <Test duration>
48h

$$$$

  Mrv1808 07152009202D          

 11 12  0  0  0  0            999 V2000
    1.4335   -0.4085    0.0000 C   0  0  0  0  0  0  0  0  0  0  0  0
    1.4335   -1.2436    0.0000 C   0  0  0  0  0  0  0  0  0  0  0  0
    0.7168    0.0000    0.0000 C   0  0  0  0  0  0  0  0  0  0  0  0
    2.1502    0.0000    0.0000 C   0  0  0  0  0  0  0  0  0  0  0  0
    0.7168   -1.6521    0.0000 C   0  0  0  0  0  0  0  0  0  0  0  0
    2.1502   -1.6521    0.0000 C   0  0  0  0  0  0  0  0  0  0  0  0
    0.0000   -0.4085    0.0000 C   0  0  0  0  0  0  0  0  0  0  0  0
    2.8669   -0.4085    0.0000 C   0  0  0  0  0  0  0  0  0  0  0  0
    0.0000   -1.2436    0.0000 C   0  0  0  0  0  0  0  0  0  0  0  0
    2.8669   -1.2436    0.0000 C   0  0  0  0  0  0  0  0  0  0  0  0
    3.5837    0.0000    0.0000 O   0  0  0  0  0  0  0  0  0  0  0  0
  1  2  2  0  0  0  0
  1  3  1  0  0  0  0
  1  4  1  0  0  0  0
  2  5  1  0  0  0  0
  2  6  1  0  0  0  0
  3  7  2  0  0  0  0
  4  8  2  0  0  0  0
  5  9  2  0  0  0  0
  6 10  2  0  0  0  0
  9  7  1  0  0  0  0
  8 10  1  0  0  0  0
  8 11  1  0  0  0  0
M  END
>  <Name>
2-Naphthalenol

>  <IGC50>
3.79

>  <CAS>
135-19-3

>  <SET>
ws

>  <Species>
Tetrahymena pyriformis

>  <Test duration>
48h

$$$$

  Mrv1808 07152009202D          

  9  9  0  0  0  0            999 V2000
    0.0000   -1.6499    0.0000 C   0  0  0  0  0  0  0  0  0  0  0  0
    0.7148   -1.2381    0.0000 C   0  0  0  0  0  0  0  0  0  0  0  0
    0.7148   -0.4118    0.0000 C   0  0  0  0  0  0  0  0  0  0  0  0
    1.4297   -1.6499    0.0000 C   0  0  0  0  0  0  0  0  0  0  0  0
    1.4297    0.0000    0.0000 C   0  0  0  0  0  0  0  0  0  0  0  0
    0.0000    0.0000    0.0000 C   0  0  0  0  0  0  0  0  0  0  0  0
    2.1445   -1.2381    0.0000 C   0  0  0  0  0  0  0  0  0  0  0  0
    2.1445   -0.4118    0.0000 C   0  0  0  0  0  0  0  0  0  0  0  0
    2.8594   -1.6499    0.0000 C   0  0  0  0  0  0  0  0  0  0  0  0
  1  2  1  0  0  0  0
  2  3  2  0  0  0  0
  2  4  1  0  0  0  0
  3  5  1  0  0  0  0
  3  6  1  0  0  0  0
  7  4  2  0  0  0  0
  5  8  2  0  0  0  0
  8  7  1  0  0  0  0
  7  9  1  0  0  0  0
M  END
>  <Name>
Benzene, 1,2,4-trimethyl-

>  <IGC50>
3.78

>  <CAS>
95-63-6

>  <SET>
ws

>  <Species>
Tetrahymena pyriformis

>  <Test duration>
48h

$$$$

  Mrv1808 07152009202D          

  9  9  0  0  0  0            999 V2000
    2.8594   -1.6499    0.0000 N   0  0  0  0  0  0  0  0  0  0  0  0
    2.1445   -1.2381    0.0000 C   0  0  0  0  0  0  0  0  0  0  0  0
    1.4297   -1.6499    0.0000 C   0  0  0  0  0  0  0  0  0  0  0  0
    2.1445   -0.4118    0.0000 C   0  0  0  0  0  0  0  0  0  0  0  0
    0.7148   -1.2381    0.0000 C   0  0  0  0  0  0  0  0  0  0  0  0
    1.4297    0.0000    0.0000 C   0  0  0  0  0  0  0  0  0  0  0  0
    2.8594    0.0000    0.0000 O   0  0  0  0  0  0  0  0  0  0  0  0
    0.0000   -1.6499    0.0000 Cl  0  0  0  0  0  0  0  0  0  0  0  0
    0.7148   -0.4118    0.0000 C   0  0  0  0  0  0  0  0  0  0  0  0
  1  2  1  0  0  0  0
  2  3  2  0  0  0  0
  2  4  1  0  0  0  0
  3  5  1  0  0  0  0
  6  4  2  0  0  0  0
  4  7  1  0  0  0  0
  5  8  1  0  0  0  0
  5  9  2  0  0  0  0
  9  6  1  0  0  0  0
M  END
>  <Name>
Phenol, 2-amino-4-chloro-

>  <IGC50>
3.78

>  <CAS>
95-85-2

>  <SET>
ws

>  <Species>
Tetrahymena pyriformis

>  <Test duration>
48h

$$$$

  Mrv1808 07152009202D          

  7  6  0  0  0  0            999 V2000
    1.4640    0.4183    0.0000 C   0  0  0  0  0  0  0  0  0  0  0  0
    2.1751    0.0000    0.0000 C   0  0  0  0  0  0  0  0  0  0  0  0
    0.7111    0.0000    0.0000 C   0  0  0  0  0  0  0  0  0  0  0  0
    2.8861    0.4183    0.0000 C   0  0  0  0  0  0  0  0  0  0  0  0
    0.0000    0.4183    0.0000 C   0  0  0  0  0  0  0  0  0  0  0  0
    3.6390    0.0000    0.0000 C   0  0  0  0  0  0  0  0  0  0  0  0
    4.3501    0.4183    0.0000 Cl  0  0  0  0  0  0  0  0  0  0  0  0
  1  2  1  0  0  0  0
  1  3  1  0  0  0  0
  2  4  1  0  0  0  0
  3  5  1  0  0  0  0
  4  6  1  0  0  0  0
  6  7  1  0  0  0  0
M  END
>  <Name>
1-chlorohexane

>  <IGC50>
3.78

>  <CAS>
544-10-5

>  <SET>
ws

>  <Species>
Tetrahymena pyriformis

>  <Test duration>
48h

$$$$

  Mrv1808 07152009202D          

 13 13  0  0  0  0            999 V2000
    2.1752    1.2967    0.0000 C   0  0  0  0  0  0  0  0  0  0  0  0
    2.1752    2.0497    0.0000 C   0  0  0  0  0  0  0  0  0  0  0  0
    1.4641    0.8366    0.0000 C   0  0  0  0  0  0  0  0  0  0  0  0
    1.4641    2.4680    0.0000 C   0  0  0  0  0  0  0  0  0  0  0  0
    2.8863    2.4680    0.0000 C   0  0  0  0  0  0  0  0  0  0  0  0
    0.7529    1.2967    0.0000 C   0  0  0  0  0  0  0  0  0  0  0  0
    0.7529    2.0497    0.0000 C   0  0  0  0  0  0  0  0  0  0  0  0
    2.8863    3.3464    0.0000 O   0  0  0  0  0  0  0  0  0  0  0  0
    3.5975    2.0915    0.0000 O   0  0  0  0  0  0  0  0  0  0  0  0
    0.0000    0.8366    0.0000 O   0  0  0  0  0  0  0  0  0  0  0  0
    4.3085    2.4680    0.0000 C   0  0  0  0  0  0  0  0  0  0  0  0
    0.0000    0.0000    0.0000 C   0  0  0  0  0  0  0  0  0  0  0  0
    5.0196    2.0497    0.0000 C   0  0  0  0  0  0  0  0  0  0  0  0
  2  1  2  0  0  0  0
  1  3  1  0  0  0  0
  4  2  1  0  0  0  0
  2  5  1  0  0  0  0
  3  6  2  0  0  0  0
  7  4  2  0  0  0  0
  5  8  2  0  0  0  0
  5  9  1  0  0  0  0
  6  7  1  0  0  0  0
  6 10  1  0  0  0  0
  9 11  1  0  0  0  0
 10 12  1  0  0  0  0
 11 13  1  0  0  0  0
M  END
>  <Name>
Benzoic acid, 4-methoxy-, ethyl ester

>  <IGC50>
3.77

>  <CAS>
94-30-4

>  <SET>
ws

>  <Species>
Tetrahymena pyriformis

>  <Test duration>
48h

$$$$

  Mrv1808 07152009202D          

  6  5  0  0  0  0            999 V2000
   -1.0717    0.2062    0.0000 C   0  0  0  0  0  0  0  0  0  0  0  0
   -0.3572   -0.2062    0.0000 C   0  0  0  0  0  0  0  0  0  0  0  0
   -1.7862   -0.2062    0.0000 Br  0  0  0  0  0  0  0  0  0  0  0  0
    0.3572    0.2062    0.0000 C   0  0  0  0  0  0  0  0  0  0  0  0
    1.0717   -0.2062    0.0000 C   0  0  0  0  0  0  0  0  0  0  0  0
    1.7862    0.2062    0.0000 C   0  0  0  0  0  0  0  0  0  0  0  0
  1  2  1  0  0  0  0
  1  3  1  0  0  0  0
  2  4  2  0  0  0  0
  4  5  1  0  0  0  0
  5  6  1  0  0  0  0
M  END
>  <Name>
trans-1-bromo-2-pentene

>  <IGC50>
3.77

>  <CAS>
7348-71-2

>  <SET>
ws

>  <Species>
Tetrahymena pyriformis

>  <Test duration>
48h

$$$$

  Mrv1808 07152009203D          

 11 10  0  0  0  0            999 V2000
    3.7069   -0.8496   -0.1814 O   0  0  0  0  0  0  0  0  0  0  0  0
    2.8252    0.1761   -0.0364 C   0  0  0  0  0  0  0  0  0  0  0  0
    5.0391   -0.4691   -0.5414 C   0  0  0  0  0  0  0  0  0  0  0  0
    3.0538    1.3667   -0.1801 O   0  0  0  0  0  0  0  0  0  0  0  0
    1.5168   -0.4068    0.3303 C   0  0  0  0  0  0  0  0  0  0  0  0
    0.4605    0.3927    0.5288 C   0  0  0  0  0  0  0  0  0  0  0  0
   -0.9015   -0.1177    0.9051 C   0  0  0  0  0  0  0  0  0  0  0  0
   -1.9828    0.2460   -0.1187 C   0  0  0  0  0  0  0  0  0  0  0  0
   -3.3829   -0.2157    0.3000 C   0  0  0  0  0  0  0  0  0  0  0  0
   -4.4687    0.1515   -0.7146 C   0  0  0  0  0  0  0  0  0  0  0  0
   -5.8663   -0.2740   -0.2916 C   0  0  0  0  0  0  0  0  0  0  0  0
  1  2  1  0  0  0  0
  1  3  1  0  0  0  0
  4  2  2  0  0  0  0
  5  2  1  0  0  0  0
  6  5  2  0  0  0  0
  7  6  1  0  0  0  0
  8  7  1  0  0  0  0
  9  8  1  0  0  0  0
  9 10  1  0  0  0  0
 10 11  1  0  0  0  0
M  END
>  <Name>
methyl (E)-oct-2-enoate

>  <IGC50>
3.77

>  <CAS>
7367-81-9

>  <SET>
ws

>  <Species>
Tetrahymena pyriformis

>  <Test duration>
48h

$$$$

  Mrv1808 07152009202D          

 20 22  0  0  0  0            999 V2000
    3.1967   -3.7228    0.0000 C   0  0  0  0  0  0  0  0  0  0  0  0
    3.1967   -4.5517    0.0000 C   0  0  0  0  0  0  0  0  0  0  0  0
    2.4819   -3.3108    0.0000 C   0  0  0  0  0  0  0  0  0  0  0  0
    2.4819   -4.9637    0.0000 C   0  0  0  0  0  0  0  0  0  0  0  0
    1.7671   -3.7228    0.0000 C   0  0  0  0  0  0  0  0  0  0  0  0
    2.4819   -2.4819    0.0000 P   0  0  0  0  0  0  0  0  0  0  0  0
    1.7671   -4.5517    0.0000 C   0  0  0  0  0  0  0  0  0  0  0  0
    3.3108   -2.4819    0.0000 O   0  0  0  0  0  0  0  0  0  0  0  0
    1.6529   -2.4819    0.0000 C   0  0  0  0  0  0  0  0  0  0  0  0
    2.4819   -1.6529    0.0000 C   0  0  0  0  0  0  0  0  0  0  0  0
    1.2409   -3.1967    0.0000 C   0  0  0  0  0  0  0  0  0  0  0  0
    1.2409   -1.7671    0.0000 C   0  0  0  0  0  0  0  0  0  0  0  0
    1.7671   -1.2409    0.0000 C   0  0  0  0  0  0  0  0  0  0  0  0
    3.1967   -1.2409    0.0000 C   0  0  0  0  0  0  0  0  0  0  0  0
    0.4120   -3.1967    0.0000 C   0  0  0  0  0  0  0  0  0  0  0  0
    0.4120   -1.7671    0.0000 C   0  0  0  0  0  0  0  0  0  0  0  0
    1.7671   -0.4120    0.0000 C   0  0  0  0  0  0  0  0  0  0  0  0
    3.1967   -0.4120    0.0000 C   0  0  0  0  0  0  0  0  0  0  0  0
    0.0000   -2.4819    0.0000 C   0  0  0  0  0  0  0  0  0  0  0  0
    2.4819    0.0000    0.0000 C   0  0  0  0  0  0  0  0  0  0  0  0
  1  2  2  0  0  0  0
  1  3  1  0  0  0  0
  2  4  1  0  0  0  0
  5  3  2  0  0  0  0
  3  6  1  0  0  0  0
  4  7  2  0  0  0  0
  7  5  1  0  0  0  0
  6  8  2  0  0  0  0
  6  9  1  0  0  0  0
  6 10  1  0  0  0  0
  9 11  2  0  0  0  0
  9 12  1  0  0  0  0
 10 13  2  0  0  0  0
 10 14  1  0  0  0  0
 11 15  1  0  0  0  0
 16 12  2  0  0  0  0
 13 17  1  0  0  0  0
 18 14  2  0  0  0  0
 15 19  2  0  0  0  0
 19 16  1  0  0  0  0
 17 20  2  0  0  0  0
 20 18  1  0  0  0  0
M  END
>  <Name>
Phosphine oxide, triphenyl-

>  <IGC50>
3.77

>  <CAS>
791-28-6

>  <SET>
ws

>  <Species>
Tetrahymena pyriformis

>  <Test duration>
48h

$$$$

  Mrv1808 07152009203D          

  7  6  0  0  0  0            999 V2000
    2.5078    0.3610   -0.0299 C   0  0  0  0  0  0  0  0  0  0  0  0
    1.2066   -0.3418   -0.0200 C   0  0  0  0  0  0  0  0  0  0  0  0
    3.5445   -0.1868    0.2730 O   0  0  0  0  0  0  0  0  0  0  0  0
    0.0811    0.2873   -0.3683 C   0  0  0  0  0  0  0  0  0  0  0  0
   -1.2449   -0.3837   -0.3923 C   0  0  0  0  0  0  0  0  0  0  0  0
   -2.3127    0.4777    0.2672 C   0  0  0  0  0  0  0  0  0  0  0  0
   -3.6680   -0.1901    0.2113 C   0  0  0  0  0  0  0  0  0  0  0  0
  1  2  1  0  0  0  0
  1  3  2  0  0  0  0
  2  4  2  0  0  0  0
  4  5  1  0  0  0  0
  5  6  1  0  0  0  0
  6  7  1  0  0  0  0
M  END
>  <Name>
2-Hexenal, (2E)-

>  <IGC50>
3.77

>  <CAS>
6728-26-3

>  <SET>
ws

>  <Species>
Tetrahymena pyriformis

>  <Test duration>
48h

$$$$

  Mrv1808 07152009202D          

  9  8  0  0  0  0            999 V2000
    2.8862    1.2549    0.0000 C   0  0  0  0  0  0  0  0  0  0  0  0
    2.1751    0.8365    0.0000 C   0  0  0  0  0  0  0  0  0  0  0  0
    3.6391    0.8365    0.0000 C   0  0  0  0  0  0  0  0  0  0  0  0
    2.8862    2.0914    0.0000 Br  0  0  0  0  0  0  0  0  0  0  0  0
    1.4640    1.2549    0.0000 O   0  0  0  0  0  0  0  0  0  0  0  0
    2.1751    0.0000    0.0000 O   0  0  0  0  0  0  0  0  0  0  0  0
    4.3502    1.2549    0.0000 C   0  0  0  0  0  0  0  0  0  0  0  0
    0.7111    0.8365    0.0000 C   0  0  0  0  0  0  0  0  0  0  0  0
    0.0000    1.2549    0.0000 C   0  0  0  0  0  0  0  0  0  0  0  0
  1  2  1  0  0  0  0
  1  3  1  0  0  0  0
  1  4  1  0  0  0  0
  2  5  1  0  0  0  0
  2  6  2  0  0  0  0
  3  7  1  0  0  0  0
  5  8  1  0  0  0  0
  8  9  1  0  0  0  0
M  END
>  <Name>
Butyric acid, 2-bromo-, ethyl ester (8CI)

>  <IGC50>
3.764

>  <CAS>
533-68-6

>  <SET>
ws

>  <Species>
Tetrahymena pyriformis

>  <Test duration>
48h

$$$$

  Mrv1808 07152009203D          

 12 11  0  0  0  0            999 V2000
    3.0565    2.9076    3.4466 C   0  0  0  0  0  0  0  0  0  0  0  0
    4.4740    3.0818    2.9267 C   0  0  0  0  0  0  0  0  0  0  0  0
    2.6896    1.4375    3.5869 C   0  0  0  0  0  0  0  0  0  0  0  0
    4.6162    2.5749    1.4978 C   0  0  0  0  0  0  0  0  0  0  0  0
    1.2398    1.2138    3.9901 C   0  0  0  0  0  0  0  0  0  0  0  0
    6.0724    2.3977    1.0996 C   0  0  0  0  0  0  0  0  0  0  0  0
    0.9839    1.3606    5.4843 C   0  0  0  0  0  0  0  0  0  0  0  0
    6.7312    1.2691    1.9070 C   0  0  1  0  0  0  0  0  0  0  0  0
    0.8473    2.7996    5.9280 C   0  0  0  0  0  0  0  0  0  0  0  0
    6.1707    0.0000    1.6172 O   0  0  0  0  0  0  0  0  0  0  0  0
    8.2474    1.1662    1.6416 C   0  0  0  0  0  0  0  0  0  0  0  0
    8.5886    0.9704    0.2974 O   0  0  0  0  0  0  0  0  0  0  0  0
  1  2  1  0  0  0  0
  1  3  1  0  0  0  0
  2  4  1  0  0  0  0
  3  5  1  0  0  0  0
  4  6  1  0  0  0  0
  5  7  1  0  0  0  0
  6  8  1  0  0  0  0
  7  9  1  0  0  0  0
  8 10  1  0  0  0  0
  8 11  1  0  0  0  0
 11 12  1  0  0  0  0
M  END
>  <Name>
Decane-1,2-diol

>  <IGC50>
3.764

>  <CAS>
1119-86-4

>  <SET>
ws

>  <Species>
Tetrahymena pyriformis

>  <Test duration>
48h

$$$$

  Mrv1808 07152009202D          

 12 12  0  0  0  0            999 V2000
    2.4715   -1.4265    0.0000 C   0  0  0  0  0  0  0  0  0  0  0  0
    2.8828   -2.1417    0.0000 C   0  0  0  0  0  0  0  0  0  0  0  0
    1.6452   -1.4265    0.0000 C   0  0  0  0  0  0  0  0  0  0  0  0
    2.8828   -0.7152    0.0000 N   0  3  0  0  0  0  0  0  0  0  0  0
    2.4715   -2.8531    0.0000 C   0  0  0  0  0  0  0  0  0  0  0  0
    1.2339   -2.1417    0.0000 C   0  0  0  0  0  0  0  0  0  0  0  0
    2.4715    0.0000    0.0000 O   0  5  0  0  0  0  0  0  0  0  0  0
    3.7054   -0.7152    0.0000 O   0  0  0  0  0  0  0  0  0  0  0  0
    1.6452   -2.8531    0.0000 C   0  0  0  0  0  0  0  0  0  0  0  0
    0.4113   -2.1417    0.0000 N   0  3  0  0  0  0  0  0  0  0  0  0
    0.0000   -2.8531    0.0000 O   0  5  0  0  0  0  0  0  0  0  0  0
    0.0000   -1.4265    0.0000 O   0  0  0  0  0  0  0  0  0  0  0  0
  1  2  2  0  0  0  0
  1  3  1  0  0  0  0
  1  4  1  0  0  0  0
  2  5  1  0  0  0  0
  6  3  2  0  0  0  0
  4  7  1  0  0  0  0
  4  8  2  0  0  0  0
  5  9  2  0  0  0  0
  9  6  1  0  0  0  0
  6 10  1  0  0  0  0
 10 11  1  0  0  0  0
 10 12  2  0  0  0  0
M  CHG  4   4   1   7  -1  10   1  11  -1
M  END
>  <Name>
Benzene, 1,3-dinitro-

>  <IGC50>
3.76

>  <CAS>
99-65-0

>  <SET>
ws

>  <Species>
Tetrahymena pyriformis

>  <Test duration>
48h

$$$$

  Mrv1808 07152009202D          

 11 11  0  0  0  0            999 V2000
    0.0000   -1.2377    0.0000 C   0  0  0  0  0  0  0  0  0  0  0  0
    0.7152   -1.6489    0.0000 C   0  0  0  0  0  0  0  0  0  0  0  0
    1.4262   -1.2377    0.0000 C   0  0  0  0  0  0  0  0  0  0  0  0
    1.4262   -0.4111    0.0000 O   0  0  0  0  0  0  0  0  0  0  0  0
    2.1414   -1.6489    0.0000 O   0  0  0  0  0  0  0  0  0  0  0  0
    2.8567   -1.2377    0.0000 C   0  0  0  0  0  0  0  0  0  0  0  0
    2.8567   -0.4111    0.0000 C   0  0  0  0  0  0  0  0  0  0  0  0
    3.5676   -1.6489    0.0000 C   0  0  0  0  0  0  0  0  0  0  0  0
    3.5676    0.0000    0.0000 C   0  0  0  0  0  0  0  0  0  0  0  0
    4.2828   -1.2377    0.0000 C   0  0  0  0  0  0  0  0  0  0  0  0
    4.2828   -0.4111    0.0000 C   0  0  0  0  0  0  0  0  0  0  0  0
  1  2  2  0  0  0  0
  2  3  1  0  0  0  0
  3  4  2  0  0  0  0
  3  5  1  0  0  0  0
  5  6  1  0  0  0  0
  6  7  1  0  0  0  0
  6  8  1  0  0  0  0
  7  9  1  0  0  0  0
 10  8  1  0  0  0  0
  9 11  1  0  0  0  0
 11 10  1  0  0  0  0
M  END
>  <Name>
2-Propenoic acid, cyclohexyl ester

>  <IGC50>
3.76

>  <CAS>
3066-71-5

>  <SET>
ws

>  <Species>
Tetrahymena pyriformis

>  <Test duration>
48h

$$$$

  Mrv1808 07152009203D          

  9  8  0  0  0  0            999 V2000
    2.2149   -0.9678    0.0699 O   0  0  0  0  0  0  0  0  0  0  0  0
    1.8157    0.3281   -0.0276 C   0  0  0  0  0  0  0  0  0  0  0  0
    3.6292   -1.1802    0.0138 C   0  0  0  0  0  0  0  0  0  0  0  0
    2.5260    1.3140   -0.1560 O   0  0  0  0  0  0  0  0  0  0  0  0
    0.3834    0.4527    0.0381 C   0  0  0  0  0  0  0  0  0  0  0  0
   -0.8120    0.5542    0.0935 C   0  0  0  0  0  0  0  0  0  0  0  0
   -2.2745    0.6783    0.1626 C   0  0  0  0  0  0  0  0  0  0  0  0
   -2.9826   -0.6434   -0.1343 C   0  0  0  0  0  0  0  0  0  0  0  0
   -4.5001   -0.5360   -0.0600 C   0  0  0  0  0  0  0  0  0  0  0  0
  1  2  1  0  0  0  0
  1  3  1  0  0  0  0
  4  2  2  0  0  0  0
  5  2  1  0  0  0  0
  6  5  3  0  0  0  0
  7  6  1  0  0  0  0
  8  7  1  0  0  0  0
  8  9  1  0  0  0  0
M  END
>  <Name>
methyl hex-2-ynoate

>  <IGC50>
3.76

>  <CAS>
18937-79-6

>  <SET>
ws

>  <Species>
Tetrahymena pyriformis

>  <Test duration>
48h

$$$$

  Mrv1808 07152009202D          

 13 13  0  0  0  0            999 V2000
    2.1455   -2.4760    0.0000 N   0  0  0  0  0  0  0  0  0  0  0  0
    2.1455   -1.6521    0.0000 C   0  0  0  0  0  0  0  0  0  0  0  0
    1.4289   -1.2358    0.0000 C   0  0  0  0  0  0  0  0  0  0  0  0
    2.8622   -1.2358    0.0000 C   0  0  0  0  0  0  0  0  0  0  0  0
    0.7166   -1.6521    0.0000 C   0  0  0  0  0  0  0  0  0  0  0  0
    1.4289   -0.4119    0.0000 C   0  0  0  0  0  0  0  0  0  0  0  0
    2.8622   -0.4119    0.0000 C   0  0  0  0  0  0  0  0  0  0  0  0
    3.5745   -1.6521    0.0000 C   0  0  0  0  0  0  0  0  0  0  0  0
    0.0000   -1.2358    0.0000 C   0  0  0  0  0  0  0  0  0  0  0  0
    0.7166   -2.4760    0.0000 C   0  0  0  0  0  0  0  0  0  0  0  0
    2.1455    0.0000    0.0000 C   0  0  0  0  0  0  0  0  0  0  0  0
    4.2911   -1.2358    0.0000 C   0  0  0  0  0  0  0  0  0  0  0  0
    3.5745   -2.4760    0.0000 C   0  0  0  0  0  0  0  0  0  0  0  0
  1  2  1  0  0  0  0
  2  3  2  0  0  0  0
  2  4  1  0  0  0  0
  3  5  1  0  0  0  0
  3  6  1  0  0  0  0
  7  4  2  0  0  0  0
  4  8  1  0  0  0  0
  5  9  1  0  0  0  0
  5 10  1  0  0  0  0
  6 11  2  0  0  0  0
 11  7  1  0  0  0  0
  8 12  1  0  0  0  0
  8 13  1  0  0  0  0
M  END
>  <Name>
Benzenamine, 2,6-bis(1-methylethyl)-

>  <IGC50>
3.76

>  <CAS>
24544-04-5

>  <SET>
ws

>  <Species>
Tetrahymena pyriformis

>  <Test duration>
48h

$$$$

  Mrv1808 07152009202D          

 10 10  0  0  0  0            999 V2000
    2.9528    0.4343    0.0000 C   0  0  0  0  0  0  0  0  0  0  0  0
    2.9528    1.2593    0.0000 C   0  0  0  0  0  0  0  0  0  0  0  0
    2.2146    0.0000    0.0000 C   0  0  0  0  0  0  0  0  0  0  0  0
    3.7344    0.0000    0.0000 Cl  0  0  0  0  0  0  0  0  0  0  0  0
    2.2146    1.6935    0.0000 C   0  0  0  0  0  0  0  0  0  0  0  0
    1.5198    0.4343    0.0000 C   0  0  0  0  0  0  0  0  0  0  0  0
    1.5198    1.2593    0.0000 C   0  0  0  0  0  0  0  0  0  0  0  0
    2.2146    2.5620    0.0000 O   0  0  0  0  0  0  0  0  0  0  0  0
    0.7817    0.0000    0.0000 O   0  0  0  0  0  0  0  0  0  0  0  0
    0.0000    0.4343    0.0000 C   0  0  0  0  0  0  0  0  0  0  0  0
  2  1  2  0  0  0  0
  1  3  1  0  0  0  0
  1  4  1  0  0  0  0
  5  2  1  0  0  0  0
  3  6  2  0  0  0  0
  7  5  2  0  0  0  0
  5  8  1  0  0  0  0
  6  7  1  0  0  0  0
  6  9  1  0  0  0  0
  9 10  1  0  0  0  0
M  END
>  <Name>
3-Chloro-5-methoxyphenol

>  <IGC50>
3.76

>  <CAS>
65262-96-6

>  <SET>
ws

>  <Species>
Tetrahymena pyriformis

>  <Test duration>
48h

$$$$

  Mrv1808 07152009202D          

 12 12  0  0  0  0            999 V2000
    3.5518   -1.2337    0.0000 C   0  0  0  0  0  0  0  0  0  0  0  0
    3.5518   -0.4129    0.0000 C   0  0  0  0  0  0  0  0  0  0  0  0
    2.8354   -1.6565    0.0000 C   0  0  0  0  0  0  0  0  0  0  0  0
    4.2681   -1.6515    0.0000 O   0  0  0  0  0  0  0  0  0  0  0  0
    2.8354   -0.0049    0.0000 C   0  0  0  0  0  0  0  0  0  0  0  0
    4.2632    0.0000    0.0000 O   0  0  0  0  0  0  0  0  0  0  0  0
    2.1192   -1.2386    0.0000 C   0  0  0  0  0  0  0  0  0  0  0  0
    4.9745   -1.2536    0.0000 C   0  0  0  0  0  0  0  0  0  0  0  0
    2.1192   -0.4179    0.0000 C   0  0  0  0  0  0  0  0  0  0  0  0
    1.4078   -1.6565    0.0000 C   0  0  0  0  0  0  0  0  0  0  0  0
    0.6964   -1.2386    0.0000 C   0  0  0  0  0  0  0  0  0  0  0  0
    0.0000   -1.6316    0.0000 C   0  0  0  0  0  0  0  0  0  0  0  0
  1  2  1  0  0  0  0
  1  3  2  0  0  0  0
  1  4  1  0  0  0  0
  2  5  2  0  0  0  0
  2  6  1  0  0  0  0
  3  7  1  0  0  0  0
  4  8  1  0  0  0  0
  5  9  1  0  0  0  0
 10  7  1  0  0  0  0
  7  9  2  0  0  0  0
 10 11  2  0  0  0  0
 11 12  1  0  0  0  0
M  END
>  <Name>
Phenol, 2-methoxy-4-(1-propenyl)-

>  <IGC50>
3.75

>  <CAS>
97-54-1

>  <SET>
ws

>  <Species>
Tetrahymena pyriformis

>  <Test duration>
48h

$$$$

  Mrv1808 07152009202D          

  8  8  0  0  0  0            999 V2000
    0.0000   -1.4295    0.0000 O   0  0  0  0  0  0  0  0  0  0  0  0
    0.8250   -1.4295    0.0000 C   0  0  0  0  0  0  0  0  0  0  0  0
    1.2388   -0.7160    0.0000 C   0  0  0  0  0  0  0  0  0  0  0  0
    1.2388   -2.1455    0.0000 C   0  0  0  0  0  0  0  0  0  0  0  0
    2.0638   -0.7160    0.0000 C   0  0  0  0  0  0  0  0  0  0  0  0
    0.8250    0.0000    0.0000 O   0  0  0  0  0  0  0  0  0  0  0  0
    2.0638   -2.1455    0.0000 C   0  0  0  0  0  0  0  0  0  0  0  0
    2.4775   -1.4295    0.0000 C   0  0  0  0  0  0  0  0  0  0  0  0
  1  2  1  0  0  0  0
  2  3  2  0  0  0  0
  2  4  1  0  0  0  0
  3  5  1  0  0  0  0
  3  6  1  0  0  0  0
  7  4  2  0  0  0  0
  5  8  2  0  0  0  0
  8  7  1  0  0  0  0
M  END
>  <Name>
1,2-Benzenediol

>  <IGC50>
3.75

>  <CAS>
120-80-9

>  <SET>
ws

>  <Species>
Tetrahymena pyriformis

>  <Test duration>
48h

$$$$

  Mrv1808 07152009202D          

 10 10  0  0  0  0            999 V2000
    0.0000    1.2131    0.0000 C   0  0  0  0  0  0  0  0  0  0  0  0
    0.7111    1.6313    0.0000 C   0  0  0  0  0  0  0  0  0  0  0  0
    0.0000    0.4183    0.0000 C   0  0  0  0  0  0  0  0  0  0  0  0
    1.4640    1.2131    0.0000 C   0  0  0  0  0  0  0  0  0  0  0  0
    0.7111    2.4679    0.0000 Br  0  0  0  0  0  0  0  0  0  0  0  0
    0.7111    0.0000    0.0000 C   0  0  0  0  0  0  0  0  0  0  0  0
    1.4640    0.4183    0.0000 C   0  0  0  0  0  0  0  0  0  0  0  0
    2.1333    1.6313    0.0000 N   0  0  0  0  0  0  0  0  0  0  0  0
    2.9699    1.6313    0.0000 O   0  0  0  0  0  0  0  0  0  0  0  0
    2.1333    2.4679    0.0000 O   0  0  0  0  0  0  0  0  0  0  0  0
  1  2  2  0  0  0  0
  3  1  1  0  0  0  0
  2  4  1  0  0  0  0
  2  5  1  0  0  0  0
  6  3  2  0  0  0  0
  4  7  2  0  0  0  0
  4  8  1  0  0  0  0
  7  6  1  0  0  0  0
  8  9  2  0  0  0  0
  8 10  2  0  0  0  0
M  END
>  <Name>
Benzene, 1-bromo-2-nitro-

>  <IGC50>
3.75

>  <CAS>
577-19-5

>  <SET>
ws

>  <Species>
Tetrahymena pyriformis

>  <Test duration>
48h

$$$$

  Mrv1808 07152009203D          

  7  7  0  0  0  0            999 V2000
    3.0534    0.4894   -0.0002 Br  0  0  0  0  0  0  0  0  0  0  0  0
    1.2000    0.0749   -0.0001 C   0  0  0  0  0  0  0  0  0  0  0  0
   -0.0347    1.2615    0.0002 S   0  0  0  0  0  0  0  0  0  0  0  0
    0.6880   -1.2039    0.0000 C   0  0  0  0  0  0  0  0  0  0  0  0
   -1.2594    0.0648    0.0002 C   0  0  0  0  0  0  0  0  0  0  0  0
   -0.7369   -1.2097    0.0001 C   0  0  0  0  0  0  0  0  0  0  0  0
   -2.9104    0.5229   -0.0003 Cl  0  0  0  0  0  0  0  0  0  0  0  0
  1  2  1  0  0  0  0
  3  2  1  0  0  0  0
  4  2  2  0  0  0  0
  3  5  1  0  0  0  0
  4  6  1  0  0  0  0
  7  5  1  0  0  0  0
  6  5  2  0  0  0  0
M  END
>  <Name>
2-bromo-5-chlorothiophene

>  <IGC50>
3.75

>  <CAS>
2873-18-9

>  <SET>
ws

>  <Species>
Tetrahymena pyriformis

>  <Test duration>
48h

$$$$

  Mrv1808 07152009202D          

 12 12  0  0  0  0            999 V2000
    2.9077    2.4923    0.0000 O   0  0  0  0  0  0  0  0  0  0  0  0
    2.9077    1.6615    0.0000 C   0  0  0  0  0  0  0  0  0  0  0  0
    3.6138    1.2461    0.0000 O   0  0  0  0  0  0  0  0  0  0  0  0
    2.1600    1.2461    0.0000 C   0  0  0  0  0  0  0  0  0  0  0  0
    4.3200    1.6615    0.0000 C   0  0  0  0  0  0  0  0  0  0  0  0
    1.4538    1.6615    0.0000 C   0  0  0  0  0  0  0  0  0  0  0  0
    2.1600    0.4154    0.0000 C   0  0  0  0  0  0  0  0  0  0  0  0
    5.0676    1.2461    0.0000 C   0  0  0  0  0  0  0  0  0  0  0  0
    0.7477    1.2461    0.0000 C   0  0  0  0  0  0  0  0  0  0  0  0
    1.4538    0.0000    0.0000 C   0  0  0  0  0  0  0  0  0  0  0  0
    0.7477    0.4154    0.0000 C   0  0  0  0  0  0  0  0  0  0  0  0
    0.0000    0.0000    0.0000 Cl  0  0  0  0  0  0  0  0  0  0  0  0
  1  2  2  0  0  0  0
  2  3  1  0  0  0  0
  2  4  1  0  0  0  0
  5  3  1  0  0  0  0
  6  4  2  0  0  0  0
  4  7  1  0  0  0  0
  8  5  1  0  0  0  0
  9  6  1  0  0  0  0
  7 10  2  0  0  0  0
 11  9  2  0  0  0  0
 10 11  1  0  0  0  0
 12 11  1  0  0  0  0
M  END
>  <Name>
ethyl 4-chlorobenzoate

>  <IGC50>
3.75

>  <CAS>
7335-27-5

>  <SET>
ws

>  <Species>
Tetrahymena pyriformis

>  <Test duration>
48h

$$$$

  Mrv1808 07152009202D          

 16 17  0  0  0  0            999 V2000
    2.5099    2.0915    0.0000 C   0  0  0  0  0  0  0  0  0  0  0  0
    1.7150    2.0915    0.0000 C   0  0  0  0  0  0  0  0  0  0  0  0
    2.9282    1.4223    0.0000 C   0  0  0  0  0  0  0  0  0  0  0  0
    2.8863    2.8026    0.0000 C   0  0  0  0  0  0  0  0  0  0  0  0
    1.2967    1.4223    0.0000 C   0  0  0  0  0  0  0  0  0  0  0  0
    1.2967    2.8026    0.0000 C   0  0  0  0  0  0  0  0  0  0  0  0
    3.7648    1.4223    0.0000 C   0  0  0  0  0  0  0  0  0  0  0  0
    3.7648    2.8026    0.0000 C   0  0  0  0  0  0  0  0  0  0  0  0
    1.7150    0.7111    0.0000 C   0  0  0  0  0  0  0  0  0  0  0  0
    0.4183    1.4223    0.0000 C   0  0  0  0  0  0  0  0  0  0  0  0
    1.6732    3.5556    0.0000 C   0  0  0  0  0  0  0  0  0  0  0  0
    0.4601    2.8026    0.0000 O   0  0  0  0  0  0  0  0  0  0  0  0
    4.1831    2.0915    0.0000 C   0  0  0  0  0  0  0  0  0  0  0  0
    1.2967    0.0000    0.0000 C   0  0  0  0  0  0  0  0  0  0  0  0
    0.0000    0.7111    0.0000 C   0  0  0  0  0  0  0  0  0  0  0  0
    0.4183    0.0000    0.0000 C   0  0  0  0  0  0  0  0  0  0  0  0
  1  2  1  0  0  0  0
  1  3  2  0  0  0  0
  4  1  1  0  0  0  0
  2  5  1  0  0  0  0
  2  6  1  0  0  0  0
  3  7  1  0  0  0  0
  8  4  2  0  0  0  0
  9  5  2  0  0  0  0
  5 10  1  0  0  0  0
  6 11  1  0  0  0  0
  6 12  1  0  0  0  0
  7 13  2  0  0  0  0
 13  8  1  0  0  0  0
 14  9  1  0  0  0  0
 10 15  2  0  0  0  0
 16 14  2  0  0  0  0
 15 16  1  0  0  0  0
M  END
>  <Name>
alpha-Methyl-beta-phenylphenethyl alcohol

>  <IGC50>
3.75

>  <CAS>
29338-49-6

>  <SET>
ws

>  <Species>
Tetrahymena pyriformis

>  <Test duration>
48h

$$$$

  Mrv1808 07152009202D          

 11 11  0  0  0  0            999 V2000
    0.0000   -1.4266    0.0000 N   0  0  0  0  0  0  0  0  0  0  0  0
    0.8226   -1.4266    0.0000 C   0  0  0  0  0  0  0  0  0  0  0  0
    1.2339   -0.7114    0.0000 C   0  0  0  0  0  0  0  0  0  0  0  0
    1.2339   -2.1380    0.0000 C   0  0  0  0  0  0  0  0  0  0  0  0
    0.8226    0.0000    0.0000 Cl  0  0  0  0  0  0  0  0  0  0  0  0
    2.0602   -0.7114    0.0000 C   0  0  0  0  0  0  0  0  0  0  0  0
    2.0602   -2.1380    0.0000 C   0  0  0  0  0  0  0  0  0  0  0  0
    2.4715   -1.4266    0.0000 C   0  0  0  0  0  0  0  0  0  0  0  0
    3.2941   -1.4266    0.0000 N   0  3  0  0  0  0  0  0  0  0  0  0
    3.7054   -0.7114    0.0000 O   0  5  0  0  0  0  0  0  0  0  0  0
    3.7054   -2.1380    0.0000 O   0  0  0  0  0  0  0  0  0  0  0  0
  1  2  1  0  0  0  0
  2  3  2  0  0  0  0
  2  4  1  0  0  0  0
  3  5  1  0  0  0  0
  3  6  1  0  0  0  0
  7  4  2  0  0  0  0
  6  8  2  0  0  0  0
  8  7  1  0  0  0  0
  8  9  1  0  0  0  0
  9 10  1  0  0  0  0
  9 11  2  0  0  0  0
M  CHG  2   9   1  10  -1
M  END
>  <Name>
Benzenamine, 2-chloro-4-nitro-

>  <IGC50>
3.75

>  <CAS>
121-87-9

>  <SET>
ws

>  <Species>
Tetrahymena pyriformis

>  <Test duration>
48h

$$$$

  Mrv1808 07152009202D          

 12 12  0  0  0  0            999 V2000
    2.0915    0.7111    0.0000 C   0  0  0  0  0  0  0  0  0  0  0  0
    1.2967    0.7111    0.0000 C   0  0  0  0  0  0  0  0  0  0  0  0
    2.5098    1.4222    0.0000 C   0  0  0  0  0  0  0  0  0  0  0  0
    0.8784    1.4222    0.0000 C   0  0  0  0  0  0  0  0  0  0  0  0
    0.8784    0.0000    0.0000 C   0  0  0  0  0  0  0  0  0  0  0  0
    2.0915    2.1333    0.0000 C   0  0  0  0  0  0  0  0  0  0  0  0
    3.3464    1.4222    0.0000 N   0  0  0  0  0  0  0  0  0  0  0  0
    1.2967    2.1333    0.0000 C   0  0  0  0  0  0  0  0  0  0  0  0
    0.0418    1.4222    0.0000 O   0  0  0  0  0  0  0  0  0  0  0  0
    0.0000    0.0000    0.0000 Cl  0  0  0  0  0  0  0  0  0  0  0  0
    3.7648    2.1333    0.0000 O   0  0  0  0  0  0  0  0  0  0  0  0
    3.7229    0.7111    0.0000 O   0  0  0  0  0  0  0  0  0  0  0  0
  2  1  2  0  0  0  0
  1  3  1  0  0  0  0
  4  2  1  0  0  0  0
  2  5  1  0  0  0  0
  3  6  2  0  0  0  0
  3  7  1  0  0  0  0
  8  4  2  0  0  0  0
  4  9  1  0  0  0  0
  5 10  1  0  0  0  0
  6  8  1  0  0  0  0
  7 11  2  0  0  0  0
  7 12  2  0  0  0  0
M  END
>  <Name>
Phenol, 2-(chloromethyl)-4-nitro-

>  <IGC50>
3.75

>  <CAS>
2973-19-5

>  <SET>
ws

>  <Species>
Tetrahymena pyriformis

>  <Test duration>
48h

$$$$

  Mrv1808 07152009202D          

  9  8  0  0  0  0            999 V2000
    0.0000    0.4125    0.0000 C   0  0  0  0  0  0  0  0  0  0  0  0
    0.7145    0.8250    0.0000 C   0  0  0  0  0  0  0  0  0  0  0  0
    1.4290    1.2375    0.0000 C   0  0  0  0  0  0  0  0  0  0  0  0
    2.1435    0.8250    0.0000 C   0  0  0  0  0  0  0  0  0  0  0  0
    1.4290    2.0625    0.0000 O   0  0  0  0  0  0  0  0  0  0  0  0
    2.8579    1.2375    0.0000 C   0  0  0  0  0  0  0  0  0  0  0  0
    2.1435    0.0000    0.0000 C   0  0  0  0  0  0  0  0  0  0  0  0
    3.5724    0.8250    0.0000 C   0  0  0  0  0  0  0  0  0  0  0  0
    4.2869    1.2375    0.0000 C   0  0  0  0  0  0  0  0  0  0  0  0
  1  2  3  0  0  0  0
  2  3  1  0  0  0  0
  3  4  1  0  0  0  0
  3  5  1  0  0  0  0
  4  6  1  0  0  0  0
  4  7  1  0  0  0  0
  6  8  1  0  0  0  0
  8  9  1  0  0  0  0
M  END
>  <Name>
4-Methylhept-1-yn-3-ol

>  <IGC50>
3.743

>  <CAS>
87777-46-6

>  <SET>
ws

>  <Species>
Tetrahymena pyriformis

>  <Test duration>
48h

$$$$

  Mrv1808 07152009202D          

 11 12  0  0  0  0            999 V2000
    0.0000   -1.6478    0.0000 C   0  0  0  0  0  0  0  0  0  0  0  0
    0.7128   -1.2380    0.0000 C   0  0  0  0  0  0  0  0  0  0  0  0
    1.4285   -1.6478    0.0000 C   0  0  0  0  0  0  0  0  0  0  0  0
    0.7128   -0.4126    0.0000 C   0  0  0  0  0  0  0  0  0  0  0  0
    2.1412   -1.2380    0.0000 C   0  0  0  0  0  0  0  0  0  0  0  0
    1.4285   -2.4731    0.0000 C   0  0  0  0  0  0  0  0  0  0  0  0
    1.4285    0.0000    0.0000 C   0  0  0  0  0  0  0  0  0  0  0  0
    2.1412   -0.4126    0.0000 C   0  0  0  0  0  0  0  0  0  0  0  0
    2.8569   -1.6478    0.0000 C   0  0  0  0  0  0  0  0  0  0  0  0
    2.1412   -2.8858    0.0000 C   0  0  0  0  0  0  0  0  0  0  0  0
    2.8569   -2.4731    0.0000 C   0  0  0  0  0  0  0  0  0  0  0  0
  1  2  1  0  0  0  0
  2  3  2  0  0  0  0
  2  4  1  0  0  0  0
  3  5  1  0  0  0  0
  3  6  1  0  0  0  0
  7  4  2  0  0  0  0
  5  8  2  0  0  0  0
  5  9  1  0  0  0  0
 10  6  2  0  0  0  0
  8  7  1  0  0  0  0
  9 11  2  0  0  0  0
 11 10  1  0  0  0  0
M  END
>  <Name>
Naphthalene, 1-methyl-

>  <IGC50>
3.74

>  <CAS>
90-12-0

>  <SET>
ws

>  <Species>
Tetrahymena pyriformis

>  <Test duration>
48h

$$$$

  Mrv1808 07152009202D          

  7  6  0  0  0  0            999 V2000
    0.0000   -0.4112    0.0000 O   0  0  0  0  0  0  0  0  0  0  0  0
    0.7153    0.0000    0.0000 C   0  0  0  0  0  0  0  0  0  0  0  0
    1.4263   -0.4112    0.0000 C   0  0  0  0  0  0  0  0  0  0  0  0
    2.1416    0.0000    0.0000 C   0  0  0  0  0  0  0  0  0  0  0  0
    2.8569   -0.4112    0.0000 C   0  0  0  0  0  0  0  0  0  0  0  0
    3.5679    0.0000    0.0000 C   0  0  0  0  0  0  0  0  0  0  0  0
    4.2832   -0.4112    0.0000 C   0  0  0  0  0  0  0  0  0  0  0  0
  1  2  2  0  0  0  0
  2  3  1  0  0  0  0
  3  4  2  0  0  0  0
  4  5  1  0  0  0  0
  5  6  2  0  0  0  0
  6  7  1  0  0  0  0
M  END
>  <Name>
2,4-Hexadienal, (2E,4E)-

>  <IGC50>
3.74

>  <CAS>
142-83-6

>  <SET>
ws

>  <Species>
Tetrahymena pyriformis

>  <Test duration>
48h

$$$$

  Mrv1808 07152009202D          

 11 11  0  0  0  0            999 V2000
    1.2548    2.8443    0.0000 C   0  0  0  0  0  0  0  0  0  0  0  0
    0.8783    2.1332    0.0000 C   0  0  0  0  0  0  0  0  0  0  0  0
    2.0914    2.8443    0.0000 C   0  0  0  0  0  0  0  0  0  0  0  0
    1.2130    1.4640    0.0000 C   0  0  0  0  0  0  0  0  0  0  0  0
    0.0000    2.1332    0.0000 O   0  0  0  0  0  0  0  0  0  0  0  0
    2.5097    2.1332    0.0000 C   0  0  0  0  0  0  0  0  0  0  0  0
    2.0914    1.4640    0.0000 C   0  0  0  0  0  0  0  0  0  0  0  0
    2.5097    0.7111    0.0000 C   0  0  0  0  0  0  0  0  0  0  0  0
    3.3462    0.7111    0.0000 C   0  0  0  0  0  0  0  0  0  0  0  0
    2.0914    0.0000    0.0000 C   0  0  0  0  0  0  0  0  0  0  0  0
    2.9279    0.0000    0.0000 C   0  0  0  0  0  0  0  0  0  0  0  0
  1  2  2  0  0  0  0
  3  1  1  0  0  0  0
  2  4  1  0  0  0  0
  2  5  1  0  0  0  0
  6  3  2  0  0  0  0
  4  7  2  0  0  0  0
  7  6  1  0  0  0  0
  7  8  1  0  0  0  0
  8  9  1  0  0  0  0
  8 10  1  0  0  0  0
  8 11  1  0  0  0  0
M  END
>  <Name>
Phenol, 3-(1,1-dimethylethyl)-

>  <IGC50>
3.74

>  <CAS>
585-34-2

>  <SET>
ws

>  <Species>
Tetrahymena pyriformis

>  <Test duration>
48h

$$$$

  Mrv1808 07152009202D          

 11 11  0  0  0  0            999 V2000
    2.4680    2.1334    0.0000 C   0  0  0  0  0  0  0  0  0  0  0  0
    2.0497    1.4223    0.0000 C   0  0  0  0  0  0  0  0  0  0  0  0
    2.0497    2.8445    0.0000 C   0  0  0  0  0  0  0  0  0  0  0  0
    3.3047    2.1334    0.0000 C   0  0  0  0  0  0  0  0  0  0  0  0
    1.2549    1.4223    0.0000 C   0  0  0  0  0  0  0  0  0  0  0  0
    2.4680    0.7111    0.0000 N   0  0  0  0  0  0  0  0  0  0  0  0
    1.2549    2.8445    0.0000 C   0  0  0  0  0  0  0  0  0  0  0  0
    0.8366    2.1334    0.0000 C   0  0  0  0  0  0  0  0  0  0  0  0
    3.3047    0.7111    0.0000 O   0  0  0  0  0  0  0  0  0  0  0  0
    2.0497    0.0000    0.0000 O   0  0  0  0  0  0  0  0  0  0  0  0
    0.0000    2.1334    0.0000 O   0  0  0  0  0  0  0  0  0  0  0  0
  2  1  2  0  0  0  0
  1  3  1  0  0  0  0
  1  4  1  0  0  0  0
  5  2  1  0  0  0  0
  2  6  1  0  0  0  0
  3  7  2  0  0  0  0
  8  5  2  0  0  0  0
  6  9  2  0  0  0  0
  6 10  2  0  0  0  0
  7  8  1  0  0  0  0
  8 11  1  0  0  0  0
M  END
>  <Name>
3-Nitro-p-cresol

>  <IGC50>
3.74

>  <CAS>
2042-14-0

>  <SET>
ws

>  <Species>
Tetrahymena pyriformis

>  <Test duration>
48h

$$$$

  Mrv1808 07152009202D          

 11 10  0  0  0  0            999 V2000
    0.0000   -0.8242    0.0000 C   0  0  0  0  0  0  0  0  0  0  0  0
    0.7147   -1.2363    0.0000 C   0  0  0  0  0  0  0  0  0  0  0  0
    1.4295   -0.8242    0.0000 C   0  0  0  0  0  0  0  0  0  0  0  0
    1.4295    0.0000    0.0000 O   0  0  0  0  0  0  0  0  0  0  0  0
    2.1442   -1.2363    0.0000 O   0  0  0  0  0  0  0  0  0  0  0  0
    2.8589   -0.8242    0.0000 C   0  0  0  0  0  0  0  0  0  0  0  0
    3.5802   -1.2363    0.0000 C   0  0  0  0  0  0  0  0  0  0  0  0
    4.2949   -0.8242    0.0000 C   0  0  0  0  0  0  0  0  0  0  0  0
    5.0096   -1.2363    0.0000 C   0  0  0  0  0  0  0  0  0  0  0  0
    5.7244   -0.8242    0.0000 C   0  0  0  0  0  0  0  0  0  0  0  0
    6.4391   -1.2363    0.0000 C   0  0  0  0  0  0  0  0  0  0  0  0
  1  2  2  0  0  0  0
  2  3  1  0  0  0  0
  3  4  2  0  0  0  0
  3  5  1  0  0  0  0
  5  6  1  0  0  0  0
  6  7  1  0  0  0  0
  7  8  1  0  0  0  0
  8  9  1  0  0  0  0
  9 10  1  0  0  0  0
 10 11  1  0  0  0  0
M  END
>  <Name>
2-Propenoic acid, hexyl ester

>  <IGC50>
3.74

>  <CAS>
2499-95-8

>  <SET>
ws

>  <Species>
Tetrahymena pyriformis

>  <Test duration>
48h

$$$$

  Mrv1808 07152009202D          

 11 11  0  0  0  0            999 V2000
    1.0717   -0.4125    0.0000 C   0  0  0  0  0  0  0  0  0  0  0  0
    0.3572    0.0000    0.0000 C   0  0  0  0  0  0  0  0  0  0  0  0
    1.7862    0.0000    0.0000 O   0  0  0  0  0  0  0  0  0  0  0  0
   -0.3572   -0.4125    0.0000 C   0  0  0  0  0  0  0  0  0  0  0  0
    0.3572    0.8250    0.0000 C   0  0  0  0  0  0  0  0  0  0  0  0
   -1.0717    0.0000    0.0000 C   0  0  0  0  0  0  0  0  0  0  0  0
   -0.3572   -1.2375    0.0000 F   0  0  0  0  0  0  0  0  0  0  0  0
   -0.3572    1.2375    0.0000 C   0  0  0  0  0  0  0  0  0  0  0  0
    1.0717    1.2375    0.0000 Cl  0  0  0  0  0  0  0  0  0  0  0  0
   -1.0717    0.8250    0.0000 C   0  0  0  0  0  0  0  0  0  0  0  0
   -1.7862   -0.4125    0.0000 C   0  0  0  0  0  0  0  0  0  0  0  0
  1  2  1  0  0  0  0
  1  3  2  0  0  0  0
  2  4  1  0  0  0  0
  2  5  2  0  0  0  0
  4  6  2  0  0  0  0
  4  7  1  0  0  0  0
  8  5  1  0  0  0  0
  5  9  1  0  0  0  0
  6 10  1  0  0  0  0
  6 11  1  0  0  0  0
 10  8  2  0  0  0  0
M  END
>  <Name>
6-Chloro-2-fluoro-3-methylbenzaldehyde

>  <IGC50>
3.74

>  <CAS>
286474-59-7

>  <SET>
ws

>  <Species>
Tetrahymena pyriformis

>  <Test duration>
48h

$$$$

  Mrv1808 07152009203D          

  8  8  0  0  0  0            999 V2000
   -0.6329    1.0703    0.0001 O   0  0  0  0  0  0  0  0  0  0  0  0
    0.0356   -0.1129   -0.0001 C   0  0  0  0  0  0  0  0  0  0  0  0
   -1.9578    0.7681    0.0002 C   0  0  0  0  0  0  0  0  0  0  0  0
    1.4281   -0.0168    0.0001 N   0  3  0  0  0  0  0  0  0  0  0  0
   -0.8480   -1.1671   -0.0002 C   0  0  0  0  0  0  0  0  0  0  0  0
   -2.1425   -0.5949   -0.0001 C   0  0  0  0  0  0  0  0  0  0  0  0
    2.1343   -1.0683    0.0003 O   0  5  0  0  0  0  0  0  0  0  0  0
    1.9833    1.1218   -0.0003 O   0  0  0  0  0  0  0  0  0  0  0  0
  1  2  1  0  0  0  0
  1  3  1  0  0  0  0
  4  2  1  0  0  0  0
  2  5  2  0  0  0  0
  6  3  2  0  0  0  0
  7  4  1  0  0  0  0
  8  4  2  0  0  0  0
  5  6  1  0  0  0  0
M  CHG  2   4   1   7  -1
M  END
>  <Name>
2-nitrofuran

>  <IGC50>
3.74

>  <CAS>
609-39-2

>  <SET>
ws

>  <Species>
Tetrahymena pyriformis

>  <Test duration>
48h

$$$$

  Mrv1808 07152009202D          

 10 10  0  0  0  0            999 V2000
    0.0000    0.0000    0.0000 Cl  0  0  0  0  0  0  0  0  0  0  0  0
    0.4127   -0.7128    0.0000 C   0  0  0  0  0  0  0  0  0  0  0  0
    1.2380   -0.7128    0.0000 C   0  0  0  0  0  0  0  0  0  0  0  0
    0.0000   -1.4285    0.0000 C   0  0  0  0  0  0  0  0  0  0  0  0
    1.6478   -1.4285    0.0000 C   0  0  0  0  0  0  0  0  0  0  0  0
    0.4127   -2.1412    0.0000 C   0  0  0  0  0  0  0  0  0  0  0  0
    2.4731   -1.4285    0.0000 N   0  3  0  0  0  0  0  0  0  0  0  0
    1.2380   -2.1412    0.0000 C   0  0  0  0  0  0  0  0  0  0  0  0
    2.8858   -2.1412    0.0000 O   0  0  0  0  0  0  0  0  0  0  0  0
    2.8858   -0.7128    0.0000 O   0  5  0  0  0  0  0  0  0  0  0  0
  1  2  1  0  0  0  0
  2  3  2  0  0  0  0
  2  4  1  0  0  0  0
  3  5  1  0  0  0  0
  6  4  2  0  0  0  0
  5  7  1  0  0  0  0
  5  8  2  0  0  0  0
  8  6  1  0  0  0  0
  7  9  2  0  0  0  0
  7 10  1  0  0  0  0
M  CHG  2   7   1  10  -1
M  END
>  <Name>
Benzene, 1-chloro-3-nitro-

>  <IGC50>
3.73

>  <CAS>
121-73-3

>  <SET>
ws

>  <Species>
Tetrahymena pyriformis

>  <Test duration>
48h

$$$$

  Mrv1808 07152009202D          

  7  7  0  0  0  0            999 V2000
    1.7717    1.7445    0.0000 Cl  0  0  0  0  0  0  0  0  0  0  0  0
    1.1993    1.1721    0.0000 C   0  0  0  0  0  0  0  0  0  0  0  0
    1.3084    0.3543    0.0000 C   0  0  0  0  0  0  0  0  0  0  0  0
    0.3816    1.3084    0.0000 S   0  0  0  0  0  0  0  0  0  0  0  0
    2.0443    0.0000    0.0000 Br  0  0  0  0  0  0  0  0  0  0  0  0
    0.5997    0.0000    0.0000 C   0  0  0  0  0  0  0  0  0  0  0  0
    0.0000    0.5724    0.0000 C   0  0  0  0  0  0  0  0  0  0  0  0
  1  2  1  0  0  0  0
  2  3  2  0  0  0  0
  2  4  1  0  0  0  0
  3  5  1  0  0  0  0
  3  6  1  0  0  0  0
  4  7  1  0  0  0  0
  6  7  2  0  0  0  0
M  END
>  <Name>
3-Bromo-2-chlorothiophene

>  <IGC50>
3.73

>  <CAS>
40032-73-3

>  <SET>
ws

>  <Species>
Tetrahymena pyriformis

>  <Test duration>
48h

$$$$

  Mrv1808 07152009203D          

 12 11  0  0  0  0            999 V2000
   -1.4018    0.9771   -0.1968 C   0  0  0  0  0  0  0  0  0  0  0  0
   -0.1303    0.5612   -0.9031 C   0  0  0  0  0  0  0  0  0  0  0  0
   -1.6568    2.0556    0.3021 O   0  0  0  0  0  0  0  0  0  0  0  0
   -2.3322   -0.0189   -0.1536 O   0  0  0  0  0  0  0  0  0  0  0  0
    1.0084    0.4070    0.0942 C   0  0  0  0  0  0  0  0  0  0  0  0
   -3.5796    0.2455    0.4876 C   0  0  0  0  0  0  0  0  0  0  0  0
    2.2975    0.0186   -0.6125 C   0  0  0  0  0  0  0  0  0  0  0  0
   -4.4553   -0.9597    0.4065 C   0  0  0  0  0  0  0  0  0  0  0  0
    3.4409   -0.1361    0.3771 C   0  0  0  0  0  0  0  0  0  0  0  0
   -4.1729   -2.1052   -0.2009 C   0  0  0  0  0  0  0  0  0  0  0  0
    4.7316   -0.5267   -0.3250 C   0  0  0  0  0  0  0  0  0  0  0  0
    5.8709   -0.6795    0.6572 C   0  0  0  0  0  0  0  0  0  0  0  0
  1  2  1  0  0  0  0
  1  3  2  0  0  0  0
  1  4  1  0  0  0  0
  2  5  1  0  0  0  0
  4  6  1  0  0  0  0
  5  7  1  0  0  0  0
  6  8  1  0  0  0  0
  7  9  1  0  0  0  0
  8 10  2  0  0  0  0
  9 11  1  0  0  0  0
 11 12  1  0  0  0  0
M  END
>  <Name>
Heptanoic acid, 2-propenyl ester

>  <IGC50>
3.728

>  <CAS>
142-19-8

>  <SET>
ws

>  <Species>
Tetrahymena pyriformis

>  <Test duration>
48h

$$$$

  Mrv1808 07152009202D          

 13 13  0  0  0  0            999 V2000
    3.5677    0.0000    0.0000 N   0  0  0  0  0  0  0  0  0  0  0  0
    2.8567   -0.4112    0.0000 C   0  0  0  0  0  0  0  0  0  0  0  0
    2.8567   -1.2335    0.0000 C   0  0  0  0  0  0  0  0  0  0  0  0
    2.1415    0.0000    0.0000 C   0  0  0  0  0  0  0  0  0  0  0  0
    3.5677   -1.6490    0.0000 N   0  3  0  0  0  0  0  0  0  0  0  0
    2.1415   -1.6490    0.0000 C   0  0  0  0  0  0  0  0  0  0  0  0
    1.4262   -0.4112    0.0000 C   0  0  0  0  0  0  0  0  0  0  0  0
    4.2829   -1.2335    0.0000 O   0  5  0  0  0  0  0  0  0  0  0  0
    3.5677   -2.4713    0.0000 O   0  0  0  0  0  0  0  0  0  0  0  0
    1.4262   -1.2335    0.0000 C   0  0  0  0  0  0  0  0  0  0  0  0
    0.7152   -1.6490    0.0000 N   0  3  0  0  0  0  0  0  0  0  0  0
    0.0000   -1.2335    0.0000 O   0  5  0  0  0  0  0  0  0  0  0  0
    0.7152   -2.4713    0.0000 O   0  0  0  0  0  0  0  0  0  0  0  0
  1  2  1  0  0  0  0
  2  3  2  0  0  0  0
  2  4  1  0  0  0  0
  3  5  1  0  0  0  0
  3  6  1  0  0  0  0
  7  4  2  0  0  0  0
  5  8  1  0  0  0  0
  5  9  2  0  0  0  0
  6 10  2  0  0  0  0
 10  7  1  0  0  0  0
 10 11  1  0  0  0  0
 11 12  1  0  0  0  0
 11 13  2  0  0  0  0
M  CHG  4   5   1   8  -1  11   1  12  -1
M  END
>  <Name>
Benzenamine, 2,4-dinitro-

>  <IGC50>
3.72

>  <CAS>
97-02-9

>  <SET>
ws

>  <Species>
Tetrahymena pyriformis

>  <Test duration>
48h

$$$$

  Mrv1808 07152009202D          

 11 11  0  0  0  0            999 V2000
    0.0412    0.7012    0.0000 O   0  0  0  0  0  0  0  0  0  0  0  0
    0.4125    1.4437    0.0000 N   0  0  0  0  0  0  0  0  0  0  0  0
    0.0000    2.1450    0.0000 O   0  0  0  0  0  0  0  0  0  0  0  0
    1.2787    1.4437    0.0000 C   0  0  0  0  0  0  0  0  0  0  0  0
    1.6912    0.7012    0.0000 C   0  0  0  0  0  0  0  0  0  0  0  0
    1.6912    2.1450    0.0000 C   0  0  0  0  0  0  0  0  0  0  0  0
    2.5162    0.7012    0.0000 C   0  0  0  0  0  0  0  0  0  0  0  0
    2.5162    2.1450    0.0000 C   0  0  0  0  0  0  0  0  0  0  0  0
    2.9286    0.0000    0.0000 O   0  0  0  0  0  0  0  0  0  0  0  0
    2.9286    1.4437    0.0000 C   0  0  0  0  0  0  0  0  0  0  0  0
    3.7536    0.0000    0.0000 C   0  0  0  0  0  0  0  0  0  0  0  0
  1  2  2  0  0  0  0
  2  3  2  0  0  0  0
  2  4  1  0  0  0  0
  4  5  2  0  0  0  0
  6  4  1  0  0  0  0
  5  7  1  0  0  0  0
  8  6  2  0  0  0  0
  7  9  1  0  0  0  0
  7 10  2  0  0  0  0
 10  8  1  0  0  0  0
  9 11  1  0  0  0  0
M  END
>  <Name>
Anisole, m-nitro- (8CI)

>  <IGC50>
3.72

>  <CAS>
555-03-3

>  <SET>
ws

>  <Species>
Tetrahymena pyriformis

>  <Test duration>
48h

$$$$

  Mrv1808 07152009202D          

 13 13  0  0  0  0            999 V2000
    4.3312    1.2375    0.0000 C   0  0  0  0  0  0  0  0  0  0  0  0
    3.6299    1.6912    0.0000 O   0  0  0  0  0  0  0  0  0  0  0  0
    5.0737    1.6087    0.0000 C   0  0  0  0  0  0  0  0  0  0  0  0
    2.8874    1.2788    0.0000 C   0  0  0  0  0  0  0  0  0  0  0  0
    5.7748    1.1963    0.0000 C   0  0  0  0  0  0  0  0  0  0  0  0
    2.1862    1.6912    0.0000 C   0  0  0  0  0  0  0  0  0  0  0  0
    2.8874    0.4125    0.0000 C   0  0  0  0  0  0  0  0  0  0  0  0
    6.4761    1.6087    0.0000 C   0  0  0  0  0  0  0  0  0  0  0  0
    1.4850    1.2788    0.0000 C   0  0  0  0  0  0  0  0  0  0  0  0
    2.1862    0.0000    0.0000 C   0  0  0  0  0  0  0  0  0  0  0  0
    1.4850    0.4537    0.0000 C   0  0  0  0  0  0  0  0  0  0  0  0
    0.7012    0.0825    0.0000 C   0  0  0  0  0  0  0  0  0  0  0  0
    0.0000    0.4950    0.0000 O   0  0  0  0  0  0  0  0  0  0  0  0
  1  2  1  0  0  0  0
  1  3  1  0  0  0  0
  2  4  1  0  0  0  0
  3  5  1  0  0  0  0
  6  4  2  0  0  0  0
  4  7  1  0  0  0  0
  5  8  1  0  0  0  0
  9  6  1  0  0  0  0
  7 10  2  0  0  0  0
 11  9  2  0  0  0  0
 10 11  1  0  0  0  0
 11 12  1  0  0  0  0
 12 13  2  0  0  0  0
M  END
>  <Name>
Benzaldehyde, 4-butoxy-

>  <IGC50>
3.716

>  <CAS>
5736-88-9

>  <SET>
ws

>  <Species>
Tetrahymena pyriformis

>  <Test duration>
48h

$$$$

  Mrv1808 07152009203D          

 11 10  0  0  0  0            999 V2000
    5.6309    1.0624    2.4429 C   0  0  0  0  0  0  0  0  0  0  0  0
    6.5772    1.8127    1.5113 C   0  0  0  0  0  0  0  0  0  0  0  0
    4.2741    1.1048    1.9671 C   0  0  0  0  0  0  0  0  0  0  0  0
    8.0178    1.7442    1.9937 C   0  0  0  0  0  0  0  0  0  0  0  0
    3.1480    1.1350    1.5756 C   0  0  0  0  0  0  0  0  0  0  0  0
    8.2720    2.6427    3.1938 C   0  0  0  0  0  0  0  0  0  0  0  0
    1.7990    1.1839    1.0987 C   0  0  0  0  0  0  0  0  0  0  0  0
    9.7238    2.5730    3.6400 C   0  0  0  0  0  0  0  0  0  0  0  0
    0.8682    0.8062    2.0109 O   0  0  0  0  0  0  0  0  0  0  0  0
    1.3920    1.5158    0.0000 O   0  0  0  0  0  0  0  0  0  0  0  0
    9.9819    3.4747    4.8258 C   0  0  0  0  0  0  0  0  0  0  0  0
  1  2  1  0  0  0  0
  1  3  1  0  0  0  0
  2  4  1  0  0  0  0
  3  5  3  0  0  0  0
  4  6  1  0  0  0  0
  5  7  1  0  0  0  0
  6  8  1  0  0  0  0
  7  9  1  0  0  0  0
  7 10  2  0  0  0  0
  8 11  1  0  0  0  0
M  END
>  <Name>
2-Nonynoic acid

>  <IGC50>
3.714

>  <CAS>
1846-70-4

>  <SET>
ws

>  <Species>
Tetrahymena pyriformis

>  <Test duration>
48h

$$$$

  Mrv1808 07152009203D          

 14 14  0  0  0  0            999 V2000
    2.0542    0.7106   -0.0002 C   0  0  0  0  0  0  0  0  0  0  0  0
    0.5920    0.4088   -0.0002 C   0  0  0  0  0  0  0  0  0  0  0  0
    2.5634    1.8157   -0.0007 O   0  0  0  0  0  0  0  0  0  0  0  0
    2.8561   -0.3902    0.0003 O   0  0  0  0  0  0  0  0  0  0  0  0
    0.1056   -0.9001   -0.0005 C   0  0  0  0  0  0  0  0  0  0  0  0
   -0.3057    1.4795    0.0002 C   0  0  0  0  0  0  0  0  0  0  0  0
    4.2743   -0.1982    0.0004 C   0  0  0  0  0  0  0  0  0  0  0  0
   -1.2641   -1.1371   -0.0004 C   0  0  0  0  0  0  0  0  0  0  0  0
   -1.6758    1.2474    0.0003 C   0  0  0  0  0  0  0  0  0  0  0  0
    4.8899   -1.5838    0.0003 C   0  0  0  0  0  0  0  0  0  0  0  0
   -2.1615   -0.0641    0.0000 C   0  0  0  0  0  0  0  0  0  0  0  0
   -3.6409   -0.3195    0.0001 N   0  3  0  0  0  0  0  0  0  0  0  0
   -4.4069    0.6228    0.0004 O   0  0  0  0  0  0  0  0  0  0  0  0
   -4.0467   -1.4643   -0.0002 O   0  5  0  0  0  0  0  0  0  0  0  0
  1  2  1  0  0  0  0
  1  3  2  0  0  0  0
  1  4  1  0  0  0  0
  2  5  1  0  0  0  0
  2  6  2  0  0  0  0
  4  7  1  0  0  0  0
  5  8  2  0  0  0  0
  9  6  1  0  0  0  0
  7 10  1  0  0  0  0
  8 11  1  0  0  0  0
 11  9  2  0  0  0  0
 11 12  1  0  0  0  0
 12 13  2  0  0  0  0
 12 14  1  0  0  0  0
M  CHG  2  12   1  14  -1
M  END
>  <Name>
Benzoic acid, 4-nitro-, ethyl ester

>  <IGC50>
3.71

>  <CAS>
99-77-4

>  <SET>
ws

>  <Species>
Tetrahymena pyriformis

>  <Test duration>
48h

$$$$

  Mrv1808 07152009202D          

 12 12  0  0  0  0            999 V2000
    2.5162    0.6600    0.0000 C   0  0  0  0  0  0  0  0  0  0  0  0
    1.6912    0.6600    0.0000 C   0  0  0  0  0  0  0  0  0  0  0  0
    2.9287    1.4025    0.0000 C   0  0  0  0  0  0  0  0  0  0  0  0
    1.2788    1.4025    0.0000 C   0  0  0  0  0  0  0  0  0  0  0  0
    1.2788    0.0000    0.0000 O   0  0  0  0  0  0  0  0  0  0  0  0
    2.5162    2.1038    0.0000 C   0  0  0  0  0  0  0  0  0  0  0  0
    3.7537    1.4025    0.0000 C   0  0  0  0  0  0  0  0  0  0  0  0
    1.6912    2.1038    0.0000 C   0  0  0  0  0  0  0  0  0  0  0  0
    0.4538    1.4025    0.0000 C   0  0  0  0  0  0  0  0  0  0  0  0
    2.9287    2.8050    0.0000 C   0  0  0  0  0  0  0  0  0  0  0  0
    0.0412    0.7013    0.0000 C   0  0  0  0  0  0  0  0  0  0  0  0
    0.0000    2.0625    0.0000 O   0  0  0  0  0  0  0  0  0  0  0  0
  2  1  2  0  0  0  0
  1  3  1  0  0  0  0
  4  2  1  0  0  0  0
  2  5  1  0  0  0  0
  3  6  2  0  0  0  0
  3  7  1  0  0  0  0
  8  4  2  0  0  0  0
  4  9  1  0  0  0  0
  6  8  1  0  0  0  0
  6 10  1  0  0  0  0
  9 11  1  0  0  0  0
  9 12  2  0  0  0  0
M  END
>  <Name>
2'-Hydroxy-4',5'-dimethylacetophenone

>  <IGC50>
3.71

>  <CAS>
36436-65-4

>  <SET>
ws

>  <Species>
Tetrahymena pyriformis

>  <Test duration>
48h

$$$$

  Mrv1808 07152009202D          

  9  9  0  0  0  0            999 V2000
    0.0000   -2.4779    0.0000 N   0  0  0  0  0  0  0  0  0  0  0  0
    0.7165   -2.0697    0.0000 C   0  0  0  0  0  0  0  0  0  0  0  0
    0.7165   -1.2447    0.0000 C   0  0  0  0  0  0  0  0  0  0  0  0
    1.4330   -2.4779    0.0000 C   0  0  0  0  0  0  0  0  0  0  0  0
    1.4330   -0.8279    0.0000 C   0  0  0  0  0  0  0  0  0  0  0  0
    2.1496   -2.0697    0.0000 C   0  0  0  0  0  0  0  0  0  0  0  0
    2.1496   -1.2447    0.0000 C   0  0  0  0  0  0  0  0  0  0  0  0
    1.4330    0.0000    0.0000 Cl  0  0  0  0  0  0  0  0  0  0  0  0
    2.8547   -2.4779    0.0000 Cl  0  0  0  0  0  0  0  0  0  0  0  0
  1  2  1  0  0  0  0
  2  3  2  0  0  0  0
  2  4  1  0  0  0  0
  3  5  1  0  0  0  0
  4  6  2  0  0  0  0
  5  7  2  0  0  0  0
  5  8  1  0  0  0  0
  6  7  1  0  0  0  0
  6  9  1  0  0  0  0
M  END
>  <Name>
Benzenamine, 3,5-dichloro-

>  <IGC50>
3.71

>  <CAS>
626-43-7

>  <SET>
ws

>  <Species>
Tetrahymena pyriformis

>  <Test duration>
48h

$$$$

  Mrv1808 07152009202D          

 16 15  0  0  0  0            999 V2000
    0.0000    0.8149    0.0000 C   0  0  0  0  0  0  0  0  0  0  0  0
    0.7291    1.2009    0.0000 C   0  0  0  0  0  0  0  0  0  0  0  0
    1.5011    0.8149    0.0000 O   0  0  0  0  0  0  0  0  0  0  0  0
    2.2302    1.2009    0.0000 C   0  0  0  0  0  0  0  0  0  0  0  0
    3.0022    0.8149    0.0000 C   0  0  0  0  0  0  0  0  0  0  0  0
    2.2302    2.0586    0.0000 O   0  0  0  0  0  0  0  0  0  0  0  0
    3.7313    1.2009    0.0000 C   0  0  0  0  0  0  0  0  0  0  0  0
    4.5033    0.8149    0.0000 C   0  0  0  0  0  0  0  0  0  0  0  0
    5.1895    1.2009    0.0000 C   0  0  0  0  0  0  0  0  0  0  0  0
    5.9615    0.8149    0.0000 C   0  0  0  0  0  0  0  0  0  0  0  0
    6.6906    1.2009    0.0000 C   0  0  0  0  0  0  0  0  0  0  0  0
    7.4626    0.8577    0.0000 C   0  0  0  0  0  0  0  0  0  0  0  0
    8.1917    1.2009    0.0000 O   0  0  0  0  0  0  0  0  0  0  0  0
    7.4626    0.0000    0.0000 O   0  0  0  0  0  0  0  0  0  0  0  0
    8.9637    0.8577    0.0000 C   0  0  0  0  0  0  0  0  0  0  0  0
    9.6928    1.2437    0.0000 C   0  0  0  0  0  0  0  0  0  0  0  0
  1  2  1  0  0  0  0
  2  3  1  0  0  0  0
  3  4  1  0  0  0  0
  4  5  1  0  0  0  0
  4  6  2  0  0  0  0
  5  7  1  0  0  0  0
  7  8  1  0  0  0  0
  8  9  1  0  0  0  0
  9 10  1  0  0  0  0
 11 10  1  0  0  0  0
 12 11  1  0  0  0  0
 13 12  1  0  0  0  0
 12 14  2  0  0  0  0
 15 13  1  0  0  0  0
 16 15  1  0  0  0  0
M  END
>  <Name>
Octanedioic acid, diethyl ester

>  <IGC50>
3.702

>  <CAS>
2050-23-9

>  <SET>
ws

>  <Species>
Tetrahymena pyriformis

>  <Test duration>
48h

$$$$

  Mrv1808 07152009202D          

 12 12  0  0  0  0            999 V2000
    2.0600   -2.1390    0.0000 C   0  0  0  0  0  0  0  0  0  0  0  0
    1.2350   -2.1390    0.0000 C   0  0  0  0  0  0  0  0  0  0  0  0
    2.4700   -1.4276    0.0000 C   0  0  0  0  0  0  0  0  0  0  0  0
    0.8250   -1.4276    0.0000 C   0  0  0  0  0  0  0  0  0  0  0  0
    2.0600   -0.7113    0.0000 C   0  0  0  0  0  0  0  0  0  0  0  0
    3.2950   -1.4276    0.0000 C   0  0  0  0  0  0  0  0  0  0  0  0
    0.0000   -1.4276    0.0000 N   0  0  0  0  0  0  0  0  0  0  0  0
    1.2350   -0.7113    0.0000 C   0  0  0  0  0  0  0  0  0  0  0  0
    3.7049   -2.1390    0.0000 O   0  0  0  0  0  0  0  0  0  0  0  0
    3.7049   -0.7113    0.0000 O   0  0  0  0  0  0  0  0  0  0  0  0
    4.5299   -0.7113    0.0000 C   0  0  0  0  0  0  0  0  0  0  0  0
    4.9400    0.0000    0.0000 C   0  0  0  0  0  0  0  0  0  0  0  0
  1  2  2  0  0  0  0
  1  3  1  0  0  0  0
  2  4  1  0  0  0  0
  5  3  2  0  0  0  0
  3  6  1  0  0  0  0
  4  7  1  0  0  0  0
  4  8  2  0  0  0  0
  8  5  1  0  0  0  0
  6  9  2  0  0  0  0
  6 10  1  0  0  0  0
 10 11  1  0  0  0  0
 11 12  1  0  0  0  0
M  END
>  <Name>
Benzoic acid, 4-amino-, ethyl ester

>  <IGC50>
3.7

>  <CAS>
94-09-7

>  <SET>
ws

>  <Species>
Tetrahymena pyriformis

>  <Test duration>
48h

$$$$

  Mrv1808 07152009203D          

  8  7  0  0  0  0            999 V2000
   -2.3625    1.2542   -0.0842 O   0  0  0  0  0  0  0  0  0  0  0  0
   -2.1451    0.0449   -0.0612 C   0  0  0  0  0  0  0  0  0  0  0  0
   -0.7837   -0.5118    0.1689 C   0  0  0  0  0  0  0  0  0  0  0  0
   -3.2531   -0.9485   -0.2936 C   0  0  0  0  0  0  0  0  0  0  0  0
    0.2592    0.3005    0.3855 C   0  0  0  0  0  0  0  0  0  0  0  0
    1.6573   -0.1968    0.6182 C   0  0  0  0  0  0  0  0  0  0  0  0
    2.6083    0.2905   -0.4754 C   0  0  0  0  0  0  0  0  0  0  0  0
    4.0195   -0.2330   -0.2581 C   0  0  0  0  0  0  0  0  0  0  0  0
  1  2  2  0  0  0  0
  3  2  1  0  0  0  0
  2  4  1  0  0  0  0
  5  3  2  0  0  0  0
  6  5  1  0  0  0  0
  7  6  1  0  0  0  0
  7  8  1  0  0  0  0
M  END
>  <Name>
(E)-hept-3-en-2-one

>  <IGC50>
3.7

>  <CAS>
1119-44-4

>  <SET>
ws

>  <Species>
Tetrahymena pyriformis

>  <Test duration>
48h

$$$$

  Mrv1808 07152009202D          

  9  9  0  0  0  0            999 V2000
    0.7148   -1.2381    0.0000 C   0  0  0  0  0  0  0  0  0  0  0  0
    0.7148   -0.4118    0.0000 C   0  0  0  0  0  0  0  0  0  0  0  0
    1.4297   -1.6499    0.0000 C   0  0  0  0  0  0  0  0  0  0  0  0
    0.0000   -1.6499    0.0000 C   0  0  0  0  0  0  0  0  0  0  0  0
    1.4297    0.0000    0.0000 C   0  0  0  0  0  0  0  0  0  0  0  0
    0.0000    0.0000    0.0000 O   0  0  0  0  0  0  0  0  0  0  0  0
    2.1445   -1.2381    0.0000 C   0  0  0  0  0  0  0  0  0  0  0  0
    2.1445   -0.4118    0.0000 C   0  0  0  0  0  0  0  0  0  0  0  0
    2.8594   -1.6499    0.0000 Cl  0  0  0  0  0  0  0  0  0  0  0  0
  1  2  2  0  0  0  0
  1  3  1  0  0  0  0
  1  4  1  0  0  0  0
  2  5  1  0  0  0  0
  2  6  1  0  0  0  0
  7  3  2  0  0  0  0
  5  8  2  0  0  0  0
  8  7  1  0  0  0  0
  7  9  1  0  0  0  0
M  END
>  <Name>
Phenol, 4-chloro-2-methyl-

>  <IGC50>
3.7

>  <CAS>
1570-64-5

>  <SET>
ws

>  <Species>
Tetrahymena pyriformis

>  <Test duration>
48h

$$$$

  Mrv1808 07152009203D          

 10  9  0  0  0  0            999 V2000
    1.9050   -0.4381    0.0336 O   0  0  0  0  0  0  0  0  0  0  0  0
    3.3347   -0.4472   -0.0322 C   0  0  0  0  0  0  0  0  0  0  0  0
    1.3262    0.7905   -0.0313 C   0  0  0  0  0  0  0  0  0  0  0  0
    3.8230   -1.8777    0.0520 C   0  0  0  0  0  0  0  0  0  0  0  0
    1.8895    1.8695   -0.1382 O   0  0  0  0  0  0  0  0  0  0  0  0
   -0.1089    0.7099    0.0420 C   0  0  0  0  0  0  0  0  0  0  0  0
   -1.3062    0.6402    0.1037 C   0  0  0  0  0  0  0  0  0  0  0  0
   -2.7711    0.5549    0.1805 C   0  0  0  0  0  0  0  0  0  0  0  0
   -3.2876   -0.8462   -0.1459 C   0  0  0  0  0  0  0  0  0  0  0  0
   -4.8045   -0.9559   -0.0641 C   0  0  0  0  0  0  0  0  0  0  0  0
  1  2  1  0  0  0  0
  1  3  1  0  0  0  0
  2  4  1  0  0  0  0
  5  3  2  0  0  0  0
  3  6  1  0  0  0  0
  7  6  3  0  0  0  0
  8  7  1  0  0  0  0
  9  8  1  0  0  0  0
  9 10  1  0  0  0  0
M  END
>  <Name>
ethyl hex-2-ynoate

>  <IGC50>
3.7

>  <CAS>
16205-90-6

>  <SET>
ws

>  <Species>
Tetrahymena pyriformis

>  <Test duration>
48h

$$$$

  Mrv1808 07152009202D          

 10  9  0  0  0  0            999 V2000
    0.0000    0.8366    0.0000 C   0  0  0  0  0  0  0  0  0  0  0  0
    0.7530    1.2549    0.0000 C   0  0  0  0  0  0  0  0  0  0  0  0
    1.4641    0.8366    0.0000 C   0  0  0  0  0  0  0  0  0  0  0  0
    2.3007    0.8366    0.0000 C   0  0  0  0  0  0  0  0  0  0  0  0
    2.9700    1.2549    0.0000 C   0  0  0  0  0  0  0  0  0  0  0  0
    2.3007    0.0000    0.0000 Br  0  0  0  0  0  0  0  0  0  0  0  0
    3.7230    0.8784    0.0000 O   0  0  0  0  0  0  0  0  0  0  0  0
    2.9700    2.0915    0.0000 O   0  0  0  0  0  0  0  0  0  0  0  0
    4.4341    1.2549    0.0000 C   0  0  0  0  0  0  0  0  0  0  0  0
    5.1452    0.8366    0.0000 C   0  0  0  0  0  0  0  0  0  0  0  0
  1  2  1  0  0  0  0
  2  3  1  0  0  0  0
  3  4  1  0  0  0  0
  4  5  1  0  0  0  0
  4  6  1  0  0  0  0
  5  7  1  0  0  0  0
  5  8  2  0  0  0  0
  7  9  1  0  0  0  0
  9 10  1  0  0  0  0
M  END
>  <Name>
Pentanoic acid, 2-bromo-, ethyl ester

>  <IGC50>
3.699

>  <CAS>
615-83-8

>  <SET>
ws

>  <Species>
Tetrahymena pyriformis

>  <Test duration>
48h

$$$$

  Mrv1808 07152009202D          

  9  9  0  0  0  0            999 V2000
    1.6471    0.0000    0.0000 C   0  0  0  0  0  0  0  0  0  0  0  0
    2.4721    0.0000    0.0000 C   0  0  0  0  0  0  0  0  0  0  0  0
    1.2375   -0.7154    0.0000 C   0  0  0  0  0  0  0  0  0  0  0  0
    2.8846   -0.7154    0.0000 C   0  0  0  0  0  0  0  0  0  0  0  0
    1.6471   -1.4279    0.0000 C   0  0  0  0  0  0  0  0  0  0  0  0
    0.4125   -0.7154    0.0000 C   0  0  0  0  0  0  0  0  0  0  0  0
    2.4721   -1.4279    0.0000 C   0  0  0  0  0  0  0  0  0  0  0  0
    0.0000   -1.4279    0.0000 C   0  0  0  0  0  0  0  0  0  0  0  0
    0.0000    0.0000    0.0000 C   0  0  0  0  0  0  0  0  0  0  0  0
  1  2  2  0  0  0  0
  1  3  1  0  0  0  0
  2  4  1  0  0  0  0
  5  3  2  0  0  0  0
  3  6  1  0  0  0  0
  4  7  2  0  0  0  0
  7  5  1  0  0  0  0
  6  8  1  0  0  0  0
  6  9  1  0  0  0  0
M  END
>  <Name>
Benzene, (1-methylethyl)-

>  <IGC50>
3.69

>  <CAS>
98-82-8

>  <SET>
ws

>  <Species>
Tetrahymena pyriformis

>  <Test duration>
48h

$$$$

  Mrv1808 07152009202D          

 10 10  0  0  0  0            999 V2000
    0.0000    1.2549    0.0000 C   0  0  0  0  0  0  0  0  0  0  0  0
    0.7111    1.6732    0.0000 C   0  0  0  0  0  0  0  0  0  0  0  0
    0.0000    0.4183    0.0000 C   0  0  0  0  0  0  0  0  0  0  0  0
    1.4222    1.2549    0.0000 C   0  0  0  0  0  0  0  0  0  0  0  0
    0.7111    0.0000    0.0000 C   0  0  0  0  0  0  0  0  0  0  0  0
    1.4222    0.4183    0.0000 C   0  0  0  0  0  0  0  0  0  0  0  0
    2.1332    1.7150    0.0000 C   0  0  0  0  0  0  0  0  0  0  0  0
    2.8861    1.2967    0.0000 C   0  0  0  0  0  0  0  0  0  0  0  0
    3.5972    1.7150    0.0000 C   0  0  0  0  0  0  0  0  0  0  0  0
    4.3083    1.2967    0.0000 Br  0  0  0  0  0  0  0  0  0  0  0  0
  1  2  2  0  0  0  0
  3  1  1  0  0  0  0
  2  4  1  0  0  0  0
  5  3  2  0  0  0  0
  4  6  2  0  0  0  0
  4  7  1  0  0  0  0
  6  5  1  0  0  0  0
  7  8  1  0  0  0  0
  8  9  1  0  0  0  0
  9 10  1  0  0  0  0
M  END
>  <Name>
3-bromopropylbenzene

>  <IGC50>
3.69

>  <CAS>
637-59-2

>  <SET>
ws

>  <Species>
Tetrahymena pyriformis

>  <Test duration>
48h

$$$$

  Mrv1808 07152009202D          

  8  7  0  0  0  0            999 V2000
    0.0000    0.0000    0.0000 C   0  0  0  0  0  0  0  0  0  0  0  0
    0.4125   -0.7172    0.0000 C   0  0  0  0  0  0  0  0  0  0  0  0
    1.2375   -0.7172    0.0000 C   0  0  0  0  0  0  0  0  0  0  0  0
    1.6501    0.0000    0.0000 O   0  0  0  0  0  0  0  0  0  0  0  0
    1.6501   -1.4308    0.0000 O   0  0  0  0  0  0  0  0  0  0  0  0
    2.4788   -1.4308    0.0000 C   0  0  0  0  0  0  0  0  0  0  0  0
    2.8913   -0.7172    0.0000 C   0  0  0  0  0  0  0  0  0  0  0  0
    3.7163   -0.7172    0.0000 O   0  0  0  0  0  0  0  0  0  0  0  0
  1  2  2  0  0  0  0
  2  3  1  0  0  0  0
  3  4  2  0  0  0  0
  3  5  1  0  0  0  0
  5  6  1  0  0  0  0
  6  7  1  0  0  0  0
  7  8  1  0  0  0  0
M  END
>  <Name>
2-Propenoic acid, 2-hydroxyethyl ester

>  <IGC50>
3.69

>  <CAS>
818-61-1

>  <SET>
ws

>  <Species>
Tetrahymena pyriformis

>  <Test duration>
48h

$$$$

  Mrv1808 07152009202D          

 10 10  0  0  0  0            999 V2000
    2.0498    0.7530    0.0000 C   0  0  0  0  0  0  0  0  0  0  0  0
    1.2550    0.7530    0.0000 C   0  0  0  0  0  0  0  0  0  0  0  0
    2.4681    1.4223    0.0000 C   0  0  0  0  0  0  0  0  0  0  0  0
    2.4681    0.0000    0.0000 C   0  0  0  0  0  0  0  0  0  0  0  0
    0.8366    1.4223    0.0000 C   0  0  0  0  0  0  0  0  0  0  0  0
    2.0498    2.1334    0.0000 C   0  0  0  0  0  0  0  0  0  0  0  0
    3.3047    1.4223    0.0000 C   0  0  0  0  0  0  0  0  0  0  0  0
    1.2550    2.1334    0.0000 C   0  0  0  0  0  0  0  0  0  0  0  0
    0.0000    1.4223    0.0000 O   0  0  0  0  0  0  0  0  0  0  0  0
    0.8366    2.8864    0.0000 Cl  0  0  0  0  0  0  0  0  0  0  0  0
  2  1  2  0  0  0  0
  1  3  1  0  0  0  0
  1  4  1  0  0  0  0
  5  2  1  0  0  0  0
  3  6  2  0  0  0  0
  3  7  1  0  0  0  0
  8  5  2  0  0  0  0
  5  9  1  0  0  0  0
  6  8  1  0  0  0  0
  8 10  1  0  0  0  0
M  END
>  <Name>
Phenol, 2-chloro-4,5-dimethyl- (9CI)

>  <IGC50>
3.69

>  <CAS>
1124-04-5

>  <SET>
ws

>  <Species>
Tetrahymena pyriformis

>  <Test duration>
48h

$$$$

  Mrv1808 07152009202D          

 10 10  0  0  0  0            999 V2000
    2.1451    0.4125    0.0000 C   0  0  0  0  0  0  0  0  0  0  0  0
    2.1451    1.1963    0.0000 C   0  0  0  0  0  0  0  0  0  0  0  0
    1.4438    0.0000    0.0000 C   0  0  0  0  0  0  0  0  0  0  0  0
    2.8876    0.0000    0.0000 C   0  0  0  0  0  0  0  0  0  0  0  0
    1.4438    1.6089    0.0000 C   0  0  0  0  0  0  0  0  0  0  0  0
    2.8464    1.6501    0.0000 Cl  0  0  0  0  0  0  0  0  0  0  0  0
    0.7013    0.4125    0.0000 C   0  0  0  0  0  0  0  0  0  0  0  0
    0.7013    1.2375    0.0000 C   0  0  0  0  0  0  0  0  0  0  0  0
    1.4438    2.4339    0.0000 N   0  0  0  0  0  0  0  0  0  0  0  0
    0.0000    1.6913    0.0000 Cl  0  0  0  0  0  0  0  0  0  0  0  0
  2  1  2  0  0  0  0
  1  3  1  0  0  0  0
  1  4  1  0  0  0  0
  5  2  1  0  0  0  0
  2  6  1  0  0  0  0
  3  7  2  0  0  0  0
  8  5  2  0  0  0  0
  5  9  1  0  0  0  0
  7  8  1  0  0  0  0
  8 10  1  0  0  0  0
M  END
>  <Name>
Benzenamine, 2,6-dichloro-3-methyl-

>  <IGC50>
3.69

>  <CAS>
64063-37-2

>  <SET>
ws

>  <Species>
Tetrahymena pyriformis

>  <Test duration>
48h

$$$$

  Mrv1808 07152009203D          

 11 11  0  0  0  0            999 V2000
   -0.1898    0.4714   -0.0297 C   0  0  0  0  0  0  0  0  0  0  0  0
   -1.4333   -0.1726   -0.0003 C   0  0  0  0  0  0  0  0  0  0  0  0
    0.9622   -0.3290    0.0232 C   0  0  0  0  0  0  0  0  0  0  0  0
   -0.1021    1.9525   -0.1187 C   0  0  0  0  0  0  0  0  0  0  0  0
   -1.5309   -1.5604    0.0776 C   0  0  0  0  0  0  0  0  0  0  0  0
   -2.8732    0.7076   -0.0572 Cl  0  0  0  0  0  0  0  0  0  0  0  0
    0.8680   -1.7213    0.0928 C   0  0  0  0  0  0  0  0  0  0  0  0
    2.3393    0.2761    0.0050 N   0  3  0  0  0  0  0  0  0  0  0  0
   -0.3784   -2.3339    0.1227 C   0  0  0  0  0  0  0  0  0  0  0  0
    2.7076    0.9424    0.9497 O   0  0  0  0  0  0  0  0  0  0  0  0
    3.0558    0.0670   -0.9514 O   0  5  0  0  0  0  0  0  0  0  0  0
  1  2  1  0  0  0  0
  1  3  2  0  0  0  0
  1  4  1  0  0  0  0
  2  5  2  0  0  0  0
  2  6  1  0  0  0  0
  3  7  1  0  0  0  0
  3  8  1  0  0  0  0
  9  5  1  0  0  0  0
  9  7  2  0  0  0  0
  8 10  2  0  0  0  0
  8 11  1  0  0  0  0
M  CHG  2   8   1  11  -1
M  END
>  <Name>
Benzene, 1-chloro-2-methyl-3-nitro-

>  <IGC50>
3.68

>  <CAS>
83-42-1

>  <SET>
ws

>  <Species>
Tetrahymena pyriformis

>  <Test duration>
48h

$$$$

  Mrv1808 07152009202D          

 10 10  0  0  0  0            999 V2000
    1.6478    0.0000    0.0000 Cl  0  0  0  0  0  0  0  0  0  0  0  0
    1.2380   -0.7128    0.0000 C   0  0  0  0  0  0  0  0  0  0  0  0
    1.6478   -1.4285    0.0000 C   0  0  0  0  0  0  0  0  0  0  0  0
    0.4127   -0.7128    0.0000 C   0  0  0  0  0  0  0  0  0  0  0  0
    1.2380   -2.1412    0.0000 C   0  0  0  0  0  0  0  0  0  0  0  0
    2.4731   -1.4285    0.0000 N   0  3  0  0  0  0  0  0  0  0  0  0
    0.0000   -1.4285    0.0000 C   0  0  0  0  0  0  0  0  0  0  0  0
    0.4127   -2.1412    0.0000 C   0  0  0  0  0  0  0  0  0  0  0  0
    2.8857   -0.7128    0.0000 O   0  0  0  0  0  0  0  0  0  0  0  0
    2.8857   -2.1412    0.0000 O   0  5  0  0  0  0  0  0  0  0  0  0
  1  2  1  0  0  0  0
  2  3  2  0  0  0  0
  2  4  1  0  0  0  0
  3  5  1  0  0  0  0
  3  6  1  0  0  0  0
  7  4  2  0  0  0  0
  5  8  2  0  0  0  0
  6  9  2  0  0  0  0
  6 10  1  0  0  0  0
  8  7  1  0  0  0  0
M  CHG  2   6   1  10  -1
M  END
>  <Name>
Benzene, 1-chloro-2-nitro-

>  <IGC50>
3.68

>  <CAS>
88-73-3

>  <SET>
ws

>  <Species>
Tetrahymena pyriformis

>  <Test duration>
48h

$$$$

  Mrv1808 07152009202D          

 12 12  0  0  0  0            999 V2000
    2.4680    1.4223    0.0000 C   0  0  0  0  0  0  0  0  0  0  0  0
    1.6732    1.4223    0.0000 C   0  0  0  0  0  0  0  0  0  0  0  0
    2.8864    2.0916    0.0000 C   0  0  0  0  0  0  0  0  0  0  0  0
    1.2549    2.0916    0.0000 C   0  0  0  0  0  0  0  0  0  0  0  0
    2.4680    2.8446    0.0000 C   0  0  0  0  0  0  0  0  0  0  0  0
    3.7230    2.0916    0.0000 C   0  0  0  0  0  0  0  0  0  0  0  0
    1.6732    2.8446    0.0000 C   0  0  0  0  0  0  0  0  0  0  0  0
    0.4183    2.0916    0.0000 C   0  0  0  0  0  0  0  0  0  0  0  0
    0.0000    1.4223    0.0000 O   0  0  0  0  0  0  0  0  0  0  0  0
    0.0000    2.8027    0.0000 O   0  0  0  0  0  0  0  0  0  0  0  0
    0.4183    0.7111    0.0000 C   0  0  0  0  0  0  0  0  0  0  0  0
    0.0000    0.0000    0.0000 C   0  0  0  0  0  0  0  0  0  0  0  0
  2  1  2  0  0  0  0
  1  3  1  0  0  0  0
  4  2  1  0  0  0  0
  3  5  2  0  0  0  0
  3  6  1  0  0  0  0
  7  4  2  0  0  0  0
  4  8  1  0  0  0  0
  5  7  1  0  0  0  0
  8  9  1  0  0  0  0
  8 10  2  0  0  0  0
  9 11  1  0  0  0  0
 11 12  1  0  0  0  0
M  END
>  <Name>
ethyl 4-methylbenzoate

>  <IGC50>
3.68

>  <CAS>
94-08-6

>  <SET>
ws

>  <Species>
Tetrahymena pyriformis

>  <Test duration>
48h

$$$$

  Mrv1808 07152009202D          

  8  8  0  0  0  0            999 V2000
    3.2999    0.7013    0.0000 Br  0  0  0  0  0  0  0  0  0  0  0  0
    2.4750    0.7013    0.0000 C   0  0  0  0  0  0  0  0  0  0  0  0
    2.0625    0.0000    0.0000 C   0  0  0  0  0  0  0  0  0  0  0  0
    2.0625    1.4438    0.0000 C   0  0  0  0  0  0  0  0  0  0  0  0
    1.2375    0.0000    0.0000 C   0  0  0  0  0  0  0  0  0  0  0  0
    1.2375    1.4438    0.0000 C   0  0  0  0  0  0  0  0  0  0  0  0
    0.8250    0.7013    0.0000 C   0  0  0  0  0  0  0  0  0  0  0  0
    0.0000    0.7013    0.0000 O   0  0  0  0  0  0  0  0  0  0  0  0
  1  2  1  0  0  0  0
  3  2  2  0  0  0  0
  2  4  1  0  0  0  0
  5  3  1  0  0  0  0
  4  6  2  0  0  0  0
  7  5  2  0  0  0  0
  6  7  1  0  0  0  0
  8  7  1  0  0  0  0
M  END
>  <Name>
Phenol, 4-bromo-

>  <IGC50>
3.68

>  <CAS>
106-41-2

>  <SET>
ws

>  <Species>
Tetrahymena pyriformis

>  <Test duration>
48h

$$$$

  Mrv1808 07152009202D          

 13 14  0  0  0  0            999 V2000
    2.8444    1.1713    0.0000 C   0  0  0  0  0  0  0  0  0  0  0  0
    3.5974    1.6314    0.0000 C   0  0  0  0  0  0  0  0  0  0  0  0
    2.8444    0.4183    0.0000 C   0  0  0  0  0  0  0  0  0  0  0  0
    2.1751    1.6314    0.0000 C   0  0  0  0  0  0  0  0  0  0  0  0
    4.3085    1.1713    0.0000 C   0  0  0  0  0  0  0  0  0  0  0  0
    3.5974    0.0000    0.0000 N   0  0  0  0  0  0  0  0  0  0  0  0
    1.4222    1.1713    0.0000 C   0  0  0  0  0  0  0  0  0  0  0  0
    4.3085    0.4183    0.0000 C   0  0  0  0  0  0  0  0  0  0  0  0
    1.4222    0.4183    0.0000 C   0  0  0  0  0  0  0  0  0  0  0  0
    0.7111    1.6314    0.0000 C   0  0  0  0  0  0  0  0  0  0  0  0
    0.7111    0.0000    0.0000 C   0  0  0  0  0  0  0  0  0  0  0  0
    0.0000    1.1713    0.0000 C   0  0  0  0  0  0  0  0  0  0  0  0
    0.0000    0.4183    0.0000 C   0  0  0  0  0  0  0  0  0  0  0  0
  1  2  2  0  0  0  0
  3  1  1  0  0  0  0
  1  4  1  0  0  0  0
  2  5  1  0  0  0  0
  6  3  2  0  0  0  0
  4  7  1  0  0  0  0
  5  8  2  0  0  0  0
  8  6  1  0  0  0  0
  7  9  2  0  0  0  0
 10  7  1  0  0  0  0
  9 11  1  0  0  0  0
 12 10  2  0  0  0  0
 11 13  2  0  0  0  0
 13 12  1  0  0  0  0
M  END
>  <Name>
3-Benzylpyridine

>  <IGC50>
3.68

>  <CAS>
620-95-1

>  <SET>
ws

>  <Species>
Tetrahymena pyriformis

>  <Test duration>
48h

$$$$

  Mrv1808 07152009203D          

 12 13  0  0  0  0            999 V2000
   -1.5225    1.0304   -0.0003 N   0  0  0  0  0  0  0  0  0  0  0  0
   -2.4745    0.0985   -0.0002 C   0  0  0  0  0  0  0  0  0  0  0  0
   -0.1857    0.6505    0.0000 C   0  0  0  0  0  0  0  0  0  0  0  0
   -2.1562   -1.2943    0.0002 C   0  0  0  0  0  0  0  0  0  0  0  0
   -3.8994    0.5401    0.0000 C   0  0  0  0  0  0  0  0  0  0  0  0
    0.1826   -0.7120    0.0000 C   0  0  0  0  0  0  0  0  0  0  0  0
    0.8214    1.6548    0.0002 C   0  0  0  0  0  0  0  0  0  0  0  0
   -0.8497   -1.6921    0.0002 C   0  0  0  0  0  0  0  0  0  0  0  0
    1.5552   -1.0600   -0.0003 C   0  0  0  0  0  0  0  0  0  0  0  0
    2.1409    1.2882    0.0002 C   0  0  0  0  0  0  0  0  0  0  0  0
    2.5191   -0.0789   -0.0002 C   0  0  0  0  0  0  0  0  0  0  0  0
    3.9594   -0.4451    0.0000 C   0  0  0  0  0  0  0  0  0  0  0  0
  1  2  2  0  0  0  0
  1  3  1  0  0  0  0
  2  4  1  0  0  0  0
  2  5  1  0  0  0  0
  6  3  1  0  0  0  0
  7  3  2  0  0  0  0
  4  8  2  0  0  0  0
  8  6  1  0  0  0  0
  6  9  2  0  0  0  0
 10  7  1  0  0  0  0
  9 11  1  0  0  0  0
 11 10  2  0  0  0  0
 11 12  1  0  0  0  0
M  END
>  <Name>
Quinoline, 2,6-dimethyl-

>  <IGC50>
3.68

>  <CAS>
877-43-0

>  <SET>
ws

>  <Species>
Tetrahymena pyriformis

>  <Test duration>
48h

$$$$

  Mrv1808 07152009202D          

  8  7  0  0  0  0            999 V2000
    3.7164   -0.7172    0.0000 C   0  0  0  0  0  0  0  0  0  0  0  0
    2.8914   -0.7172    0.0000 C   0  0  0  0  0  0  0  0  0  0  0  0
    2.4788   -1.4308    0.0000 C   0  0  0  0  0  0  0  0  0  0  0  0
    1.6501   -1.4308    0.0000 O   0  0  0  0  0  0  0  0  0  0  0  0
    1.2376   -0.7172    0.0000 C   0  0  0  0  0  0  0  0  0  0  0  0
    1.6501    0.0000    0.0000 O   0  0  0  0  0  0  0  0  0  0  0  0
    0.4125   -0.7172    0.0000 C   0  0  0  0  0  0  0  0  0  0  0  0
    0.0000   -1.4308    0.0000 C   0  0  0  0  0  0  0  0  0  0  0  0
  1  2  2  0  0  0  0
  2  3  1  0  0  0  0
  3  4  1  0  0  0  0
  4  5  1  0  0  0  0
  5  6  2  0  0  0  0
  5  7  1  0  0  0  0
  7  8  2  0  0  0  0
M  END
>  <Name>
Acrylic acid, allyl ester (8CI)

>  <IGC50>
3.68

>  <CAS>
999-55-3

>  <SET>
ws

>  <Species>
Tetrahymena pyriformis

>  <Test duration>
48h

$$$$

  Mrv1808 07152009202D          

 15 16  0  0  0  0            999 V2000
    2.1449    1.2375    0.0000 C   0  0  0  0  0  0  0  0  0  0  0  0
    1.4437    1.6499    0.0000 C   0  0  0  0  0  0  0  0  0  0  0  0
    2.1449    0.4125    0.0000 C   0  0  0  0  0  0  0  0  0  0  0  0
    2.8874    1.6499    0.0000 C   0  0  0  0  0  0  0  0  0  0  0  0
    0.7425    1.2375    0.0000 C   0  0  0  0  0  0  0  0  0  0  0  0
    1.4437    0.0000    0.0000 C   0  0  0  0  0  0  0  0  0  0  0  0
    3.5886    1.2375    0.0000 C   0  0  0  0  0  0  0  0  0  0  0  0
    2.8874    2.4749    0.0000 O   0  0  0  0  0  0  0  0  0  0  0  0
    0.7425    0.4125    0.0000 C   0  0  0  0  0  0  0  0  0  0  0  0
    4.2899    1.6499    0.0000 C   0  0  0  0  0  0  0  0  0  0  0  0
    3.5886    0.4125    0.0000 C   0  0  0  0  0  0  0  0  0  0  0  0
    0.0000    0.0000    0.0000 N   0  0  0  0  0  0  0  0  0  0  0  0
    5.0324    1.2375    0.0000 C   0  0  0  0  0  0  0  0  0  0  0  0
    4.2899    0.0000    0.0000 C   0  0  0  0  0  0  0  0  0  0  0  0
    5.0324    0.4125    0.0000 C   0  0  0  0  0  0  0  0  0  0  0  0
  2  1  2  0  0  0  0
  1  3  1  0  0  0  0
  1  4  1  0  0  0  0
  5  2  1  0  0  0  0
  3  6  2  0  0  0  0
  4  7  1  0  0  0  0
  4  8  2  0  0  0  0
  9  5  2  0  0  0  0
  6  9  1  0  0  0  0
  7 10  2  0  0  0  0
 11  7  1  0  0  0  0
  9 12  1  0  0  0  0
 10 13  1  0  0  0  0
 14 11  2  0  0  0  0
 13 15  2  0  0  0  0
 15 14  1  0  0  0  0
M  END
>  <Name>
Methanone, (4-aminophenyl)phenyl-

>  <IGC50>
3.68

>  <CAS>
1137-41-3

>  <SET>
ws

>  <Species>
Tetrahymena pyriformis

>  <Test duration>
48h

$$$$

  Mrv1808 07152009203D          

 14 15  0  0  0  0            999 V2000
   -1.6591    0.5736   -0.1741 O   0  0  0  0  0  0  0  0  0  0  0  0
   -0.4959   -0.1774   -0.4755 C   0  0  1  0  0  0  0  0  0  0  0  0
   -2.8322   -0.1313   -0.1243 C   0  0  0  0  0  0  0  0  0  0  0  0
    0.8004    0.6872   -0.4352 C   0  0  2  0  0  0  0  0  0  0  0  0
   -0.2199   -1.2555    0.5891 C   0  0  0  0  0  0  0  0  0  0  0  0
   -2.9550   -1.3336   -0.3152 O   0  0  0  0  0  0  0  0  0  0  0  0
   -3.9704    0.7871    0.2031 C   0  0  0  0  0  0  0  0  0  0  0  0
    1.9104   -0.3863   -0.2211 C   0  0  1  0  0  0  0  0  0  0  0  0
    0.8111    1.4649    0.9114 C   0  0  0  0  0  0  0  0  0  0  0  0
    0.9447    1.6020   -1.6368 C   0  0  0  0  0  0  0  0  0  0  0  0
    1.2119   -0.9076    1.0632 C   0  0  1  0  0  0  0  0  0  0  0  0
    2.0381   -1.4403   -1.3398 C   0  0  0  0  0  0  0  0  0  0  0  0
    3.3327    0.1607    0.0131 C   0  0  0  0  0  0  0  0  0  0  0  0
    1.0832    0.3565    1.9424 C   0  0  0  0  0  0  0  0  0  0  0  0
  1  2  1  0  0  0  0
  1  3  1  0  0  0  0
  4  2  1  0  0  0  0
  2  5  1  0  0  0  0
  6  3  2  0  0  0  0
  3  7  1  0  0  0  0
  4  8  1  0  0  0  0
  4  9  1  0  0  0  0
  4 10  1  0  0  0  0
 11  5  1  0  0  0  0
  8 11  1  0  0  0  0
  8 12  1  0  0  0  0
  8 13  1  0  0  0  0
  9 14  1  0  0  0  0
 11 14  1  0  0  0  0
M  END
>  <Name>
[(1S,3R,4S)-4,7,7-trimethyl-3-bicyclo[2.2.1]heptanyl] ethanoate

>  <IGC50>
3.68

>  <CAS>
5655-61-8

>  <SET>
ws

>  <Species>
Tetrahymena pyriformis

>  <Test duration>
48h

$$$$

  Mrv1808 07152009202D          

 10 10  0  0  0  0            999 V2000
    4.2828   -1.2377    0.0000 O   0  0  0  0  0  0  0  0  0  0  0  0
    3.5675   -1.6489    0.0000 C   0  0  0  0  0  0  0  0  0  0  0  0
    2.8566   -1.2377    0.0000 C   0  0  0  0  0  0  0  0  0  0  0  0
    2.1414   -1.6489    0.0000 C   0  0  0  0  0  0  0  0  0  0  0  0
    1.4261   -1.2377    0.0000 C   0  0  0  0  0  0  0  0  0  0  0  0
    1.4261   -0.4112    0.0000 C   0  0  0  0  0  0  0  0  0  0  0  0
    0.7152   -1.6489    0.0000 C   0  0  0  0  0  0  0  0  0  0  0  0
    0.7152    0.0000    0.0000 C   0  0  0  0  0  0  0  0  0  0  0  0
    0.0000   -1.2377    0.0000 C   0  0  0  0  0  0  0  0  0  0  0  0
    0.0000   -0.4112    0.0000 C   0  0  0  0  0  0  0  0  0  0  0  0
  1  2  2  0  0  0  0
  2  3  1  0  0  0  0
  3  4  2  0  0  0  0
  4  5  1  0  0  0  0
  5  6  2  0  0  0  0
  5  7  1  0  0  0  0
  6  8  1  0  0  0  0
  9  7  2  0  0  0  0
  8 10  2  0  0  0  0
 10  9  1  0  0  0  0
M  END
>  <Name>
2-Propenal, 3-phenyl-, (E)- (9CI)

>  <IGC50>
3.68

>  <CAS>
14371-10-9

>  <SET>
ws

>  <Species>
Tetrahymena pyriformis

>  <Test duration>
48h

$$$$

  Mrv1808 07152009203D          

  5  4  0  0  0  0            999 V2000
   -0.8398    0.6197   -0.0115 C   0  0  0  0  0  0  0  0  0  0  0  0
   -1.8389   -0.0617    0.0094 O   0  0  0  0  0  0  0  0  0  0  0  0
    0.5424    0.0659   -0.0022 C   0  0  0  0  0  0  0  0  0  0  0  0
    0.7107   -1.4085   -0.0031 C   0  0  0  0  0  0  0  0  0  0  0  0
    1.5831    0.9017    0.0066 C   0  0  0  0  0  0  0  0  0  0  0  0
  1  2  2  0  0  0  0
  1  3  1  0  0  0  0
  3  4  1  0  0  0  0
  3  5  2  0  0  0  0
M  END
>  <Name>
2-Propenal, 2-methyl-

>  <IGC50>
3.67

>  <CAS>
78-85-3

>  <SET>
ws

>  <Species>
Tetrahymena pyriformis

>  <Test duration>
48h

$$$$

  Mrv1808 07152009202D          

  9  8  0  0  0  0            999 V2000
    0.0000   -0.4118    0.0000 C   0  0  0  0  0  0  0  0  0  0  0  0
    0.7149    0.0000    0.0000 C   0  0  0  0  0  0  0  0  0  0  0  0
    1.4298   -0.4118    0.0000 C   0  0  0  0  0  0  0  0  0  0  0  0
    2.1447    0.0000    0.0000 C   0  0  0  0  0  0  0  0  0  0  0  0
    2.8595   -0.4118    0.0000 C   0  0  0  0  0  0  0  0  0  0  0  0
    3.5744    0.0000    0.0000 C   0  0  0  0  0  0  0  0  0  0  0  0
    4.2893   -0.4118    0.0000 C   0  0  0  0  0  0  0  0  0  0  0  0
    5.0042    0.0000    0.0000 C   0  0  0  0  0  0  0  0  0  0  0  0
    5.7191   -0.4118    0.0000 Cl  0  0  0  0  0  0  0  0  0  0  0  0
  1  2  1  0  0  0  0
  2  3  1  0  0  0  0
  3  4  1  0  0  0  0
  4  5  1  0  0  0  0
  5  6  1  0  0  0  0
  6  7  1  0  0  0  0
  7  8  1  0  0  0  0
  8  9  1  0  0  0  0
M  END
>  <Name>
1-chlorooctane

>  <IGC50>
3.67

>  <CAS>
111-85-3

>  <SET>
ws

>  <Species>
Tetrahymena pyriformis

>  <Test duration>
48h

$$$$

  Mrv1808 07152009202D          

 11 11  0  0  0  0            999 V2000
    2.8900   -0.7143    0.0000 C   0  0  0  0  0  0  0  0  0  0  0  0
    3.7158   -0.7143    0.0000 C   0  0  0  0  0  0  0  0  0  0  0  0
    2.4772   -1.4285    0.0000 C   0  0  0  0  0  0  0  0  0  0  0  0
    2.4772    0.0000    0.0000 C   0  0  0  0  0  0  0  0  0  0  0  0
    4.1287    0.0000    0.0000 O   0  0  0  0  0  0  0  0  0  0  0  0
    1.6514   -1.4285    0.0000 C   0  0  0  0  0  0  0  0  0  0  0  0
    1.6514    0.0000    0.0000 C   0  0  0  0  0  0  0  0  0  0  0  0
    1.2386   -0.7143    0.0000 C   0  0  0  0  0  0  0  0  0  0  0  0
    0.4129   -0.7143    0.0000 C   0  0  0  0  0  0  0  0  0  0  0  0
    0.0000   -1.4285    0.0000 C   0  0  0  0  0  0  0  0  0  0  0  0
    0.0000    0.0000    0.0000 C   0  0  0  0  0  0  0  0  0  0  0  0
  1  2  1  0  0  0  0
  1  3  2  0  0  0  0
  1  4  1  0  0  0  0
  2  5  2  0  0  0  0
  3  6  1  0  0  0  0
  7  4  2  0  0  0  0
  6  8  2  0  0  0  0
  8  7  1  0  0  0  0
  8  9  1  0  0  0  0
  9 10  1  0  0  0  0
  9 11  1  0  0  0  0
M  END
>  <Name>
Benzaldehyde, 4-(1-methylethyl)-

>  <IGC50>
3.67

>  <CAS>
122-03-2

>  <SET>
ws

>  <Species>
Tetrahymena pyriformis

>  <Test duration>
48h

$$$$

  Mrv1808 07152009202D          

  9  9  0  0  0  0            999 V2000
    2.8747   -0.7140    0.0000 C   0  0  0  0  0  0  0  0  0  0  0  0
    2.4714   -1.4281    0.0000 C   0  0  0  0  0  0  0  0  0  0  0  0
    2.4714    0.0000    0.0000 C   0  0  0  0  0  0  0  0  0  0  0  0
    3.6997   -0.7140    0.0000 Br  0  0  0  0  0  0  0  0  0  0  0  0
    1.6463   -1.4281    0.0000 C   0  0  0  0  0  0  0  0  0  0  0  0
    1.6463    0.0000    0.0000 C   0  0  0  0  0  0  0  0  0  0  0  0
    1.2283   -0.7140    0.0000 C   0  0  0  0  0  0  0  0  0  0  0  0
    0.4070   -0.7140    0.0000 C   0  0  0  0  0  0  0  0  0  0  0  0
    0.0000   -1.4281    0.0000 C   0  0  0  0  0  0  0  0  0  0  0  0
  1  2  2  0  0  0  0
  1  3  1  0  0  0  0
  1  4  1  0  0  0  0
  2  5  1  0  0  0  0
  6  3  2  0  0  0  0
  5  7  2  0  0  0  0
  7  6  1  0  0  0  0
  7  8  1  0  0  0  0
  8  9  1  0  0  0  0
M  END
>  <Name>
Benzene, 1-bromo-4-ethyl-

>  <IGC50>
3.67

>  <CAS>
1585-07-5

>  <SET>
ws

>  <Species>
Tetrahymena pyriformis

>  <Test duration>
48h

$$$$

  Mrv1808 07152009202D          

 11 11  0  0  0  0            999 V2000
    0.0000   -1.4307    0.0000 C   0  0  0  0  0  0  0  0  0  0  0  0
    0.8250   -1.4307    0.0000 C   0  0  0  0  0  0  0  0  0  0  0  0
    1.2375   -0.7172    0.0000 N   0  0  0  0  0  0  0  0  0  0  0  0
    0.8250    0.0000    0.0000 C   0  0  0  0  0  0  0  0  0  0  0  0
    2.0662   -0.7172    0.0000 C   0  0  0  0  0  0  0  0  0  0  0  0
    0.0000    0.0000    0.0000 C   0  0  0  0  0  0  0  0  0  0  0  0
    2.4787    0.0000    0.0000 C   0  0  0  0  0  0  0  0  0  0  0  0
    2.4787   -1.4307    0.0000 C   0  0  0  0  0  0  0  0  0  0  0  0
    3.3037    0.0000    0.0000 C   0  0  0  0  0  0  0  0  0  0  0  0
    3.3037   -1.4307    0.0000 C   0  0  0  0  0  0  0  0  0  0  0  0
    3.7162   -0.7172    0.0000 C   0  0  0  0  0  0  0  0  0  0  0  0
  1  2  1  0  0  0  0
  2  3  1  0  0  0  0
  3  4  1  0  0  0  0
  3  5  1  0  0  0  0
  4  6  1  0  0  0  0
  5  7  2  0  0  0  0
  5  8  1  0  0  0  0
  7  9  1  0  0  0  0
 10  8  2  0  0  0  0
  9 11  2  0  0  0  0
 11 10  1  0  0  0  0
M  END
>  <Name>
Benzenamine, N,N-diethyl-

>  <IGC50>
3.66

>  <CAS>
91-66-7

>  <SET>
ws

>  <Species>
Tetrahymena pyriformis

>  <Test duration>
48h

$$$$

  Mrv1808 07152009202D          

 11 11  0  0  0  0            999 V2000
    0.0418    2.1750    0.0000 O   0  0  0  0  0  0  0  0  0  0  0  0
    0.4182    1.4639    0.0000 N   0  0  0  0  0  0  0  0  0  0  0  0
    0.0000    0.7529    0.0000 O   0  0  0  0  0  0  0  0  0  0  0  0
    1.2966    1.4639    0.0000 C   0  0  0  0  0  0  0  0  0  0  0  0
    1.7149    2.1750    0.0000 C   0  0  0  0  0  0  0  0  0  0  0  0
    1.7149    0.7529    0.0000 C   0  0  0  0  0  0  0  0  0  0  0  0
    1.2966    2.9279    0.0000 O   0  0  0  0  0  0  0  0  0  0  0  0
    2.5514    2.1750    0.0000 C   0  0  0  0  0  0  0  0  0  0  0  0
    1.2966    0.0000    0.0000 O   0  0  0  0  0  0  0  0  0  0  0  0
    2.5514    0.7529    0.0000 C   0  0  0  0  0  0  0  0  0  0  0  0
    2.9697    1.4639    0.0000 C   0  0  0  0  0  0  0  0  0  0  0  0
  1  2  2  0  0  0  0
  2  3  2  0  0  0  0
  2  4  1  0  0  0  0
  5  4  2  0  0  0  0
  4  6  1  0  0  0  0
  5  7  1  0  0  0  0
  8  5  1  0  0  0  0
  6  9  1  0  0  0  0
  6 10  2  0  0  0  0
 11  8  2  0  0  0  0
 10 11  1  0  0  0  0
M  END
>  <Name>
1,3-Benzenediol, 2-nitro-

>  <IGC50>
3.66

>  <CAS>
601-89-8

>  <SET>
ws

>  <Species>
Tetrahymena pyriformis

>  <Test duration>
48h

$$$$

  Mrv1808 07152009203D          

 11 11  0  0  0  0            999 V2000
    3.9258    0.0756   -1.4853 S   0  0  0  0  0  0  0  0  0  0  0  0
    2.9527    0.0052   -0.1265 C   0  0  0  0  0  0  0  0  0  0  0  0
    1.5791    0.0440   -0.2238 N   0  0  0  0  0  0  0  0  0  0  0  0
    3.4918   -0.0950    1.1264 N   0  0  0  0  0  0  0  0  0  0  0  0
    0.6442   -0.0122    0.8711 C   0  0  0  0  0  0  0  0  0  0  0  0
   -0.7733   -0.0076    0.4072 C   0  0  0  0  0  0  0  0  0  0  0  0
   -1.4487    1.2016    0.2410 C   0  0  0  0  0  0  0  0  0  0  0  0
   -1.4236   -1.2122    0.1392 C   0  0  0  0  0  0  0  0  0  0  0  0
   -2.7743    1.2063   -0.1931 C   0  0  0  0  0  0  0  0  0  0  0  0
   -2.7492   -1.2075   -0.2950 C   0  0  0  0  0  0  0  0  0  0  0  0
   -3.4245    0.0018   -0.4611 C   0  0  0  0  0  0  0  0  0  0  0  0
  1  2  2  0  0  0  0
  3  2  1  0  0  0  0
  4  2  1  0  0  0  0
  3  5  1  0  0  0  0
  6  5  1  0  0  0  0
  6  7  2  0  0  0  0
  6  8  1  0  0  0  0
  7  9  1  0  0  0  0
  8 10  2  0  0  0  0
  9 11  2  0  0  0  0
 10 11  1  0  0  0  0
M  END
>  <Name>
benzylthiourea

>  <IGC50>
3.66

>  <CAS>
621-83-0

>  <SET>
ws

>  <Species>
Tetrahymena pyriformis

>  <Test duration>
48h

$$$$

  Mrv1808 07152009202D          

 10  9  0  0  0  0            999 V2000
    0.0000   -1.2411    0.0000 C   0  0  0  0  0  0  0  0  0  0  0  0
    0.7149   -0.8293    0.0000 C   0  0  0  0  0  0  0  0  0  0  0  0
    1.4297   -1.2411    0.0000 C   0  0  0  0  0  0  0  0  0  0  0  0
    2.1447   -0.8293    0.0000 C   0  0  0  0  0  0  0  0  0  0  0  0
    2.8595   -1.2411    0.0000 C   0  0  0  0  0  0  0  0  0  0  0  0
    3.5744   -0.8293    0.0000 C   0  0  0  0  0  0  0  0  0  0  0  0
    4.2893   -1.2411    0.0000 C   0  0  0  0  0  0  0  0  0  0  0  0
    5.0042   -0.8293    0.0000 C   0  0  0  0  0  0  0  0  0  0  0  0
    5.0042    0.0000    0.0000 O   0  0  0  0  0  0  0  0  0  0  0  0
    5.7191   -1.2411    0.0000 C   0  0  0  0  0  0  0  0  0  0  0  0
  1  2  1  0  0  0  0
  2  3  1  0  0  0  0
  3  4  1  0  0  0  0
  4  5  1  0  0  0  0
  5  6  1  0  0  0  0
  6  7  1  0  0  0  0
  7  8  1  0  0  0  0
  8  9  2  0  0  0  0
  8 10  1  0  0  0  0
M  END
>  <Name>
2-Nonanone

>  <IGC50>
3.66

>  <CAS>
821-55-6

>  <SET>
ws

>  <Species>
Tetrahymena pyriformis

>  <Test duration>
48h

$$$$

  Mrv1808 07152009202D          

 12 13  0  0  0  0            999 V2000
    4.1285   -0.7143    0.0000 N   0  0  0  0  0  0  0  0  0  0  0  0
    3.7157   -1.4285    0.0000 C   0  0  0  0  0  0  0  0  0  0  0  0
    3.7157    0.0000    0.0000 C   0  0  0  0  0  0  0  0  0  0  0  0
    2.8900   -1.4285    0.0000 C   0  0  0  0  0  0  0  0  0  0  0  0
    2.8900    0.0000    0.0000 C   0  0  0  0  0  0  0  0  0  0  0  0
    2.4771   -0.7143    0.0000 C   0  0  0  0  0  0  0  0  0  0  0  0
    1.6514   -0.7143    0.0000 C   0  0  0  0  0  0  0  0  0  0  0  0
    1.2386   -1.4285    0.0000 C   0  0  0  0  0  0  0  0  0  0  0  0
    1.2386    0.0000    0.0000 C   0  0  0  0  0  0  0  0  0  0  0  0
    0.4129   -1.4285    0.0000 C   0  0  0  0  0  0  0  0  0  0  0  0
    0.4129    0.0000    0.0000 C   0  0  0  0  0  0  0  0  0  0  0  0
    0.0000   -0.7143    0.0000 C   0  0  0  0  0  0  0  0  0  0  0  0
  1  2  2  0  0  0  0
  1  3  1  0  0  0  0
  2  4  1  0  0  0  0
  5  3  2  0  0  0  0
  4  6  2  0  0  0  0
  6  5  1  0  0  0  0
  6  7  1  0  0  0  0
  7  8  2  0  0  0  0
  7  9  1  0  0  0  0
  8 10  1  0  0  0  0
 11  9  2  0  0  0  0
 10 12  2  0  0  0  0
 12 11  1  0  0  0  0
M  END
>  <Name>
Pyridine, 4-phenyl-

>  <IGC50>
3.66

>  <CAS>
939-23-1

>  <SET>
ws

>  <Species>
Tetrahymena pyriformis

>  <Test duration>
48h

$$$$

  Mrv1808 07152009203D          

  6  5  0  0  0  0            999 V2000
    3.6985   -1.0475   -0.2202 O   0  0  0  0  0  0  0  0  0  0  0  0
    2.5418   -0.6476   -0.1639 C   0  0  0  0  0  0  0  0  0  0  0  0
    1.4196   -1.5489    0.1599 C   0  0  0  0  0  0  0  0  0  0  0  0
    0.1773   -1.0531    0.2056 C   0  0  0  0  0  0  0  0  0  0  0  0
   -1.0313   -1.8854    0.5198 C   0  0  0  0  0  0  0  0  0  0  0  0
   -1.6420   -2.4761   -0.7417 C   0  0  0  0  0  0  0  0  0  0  0  0
  1  2  2  0  0  0  0
  3  2  1  0  0  0  0
  4  3  2  0  0  0  0
  5  4  1  0  0  0  0
  5  6  1  0  0  0  0
M  END
>  <Name>
(E)-Pent-2-en-1-al

>  <IGC50>
3.66

>  <CAS>
1576-87-0

>  <SET>
ws

>  <Species>
Tetrahymena pyriformis

>  <Test duration>
48h

$$$$

  Mrv1808 07152009203D          

  7  6  0  0  0  0            999 V2000
    4.1533    1.5729    1.8947 C   0  0  0  0  0  0  0  0  0  0  0  0
    2.8078    2.2505    1.5863 C   0  0  2  0  0  0  0  0  0  0  0  0
    5.2980    2.5732    1.9269 C   0  0  0  0  0  0  0  0  0  0  0  0
    1.7040    1.3656    1.9404 C   0  0  0  0  0  0  0  0  0  0  0  0
    2.7976    2.5772    0.2062 O   0  0  0  0  0  0  0  0  0  0  0  0
    6.6054    1.8967    2.2733 C   0  0  0  0  0  0  0  0  0  0  0  0
    0.8043    0.6443    2.2387 C   0  0  0  0  0  0  0  0  0  0  0  0
  1  2  1  0  0  0  0
  1  3  1  0  0  0  0
  2  4  1  0  0  0  0
  2  5  1  0  0  0  0
  3  6  1  0  0  0  0
  4  7  3  0  0  0  0
M  END
>  <Name>
1-Hexyn-3-ol

>  <IGC50>
3.657

>  <CAS>
105-31-7

>  <SET>
ws

>  <Species>
Tetrahymena pyriformis

>  <Test duration>
48h

$$$$

  Mrv1808 07152009202D          

  9  9  0  0  0  0            999 V2000
    0.0000    0.0000    0.0000 O   0  0  0  0  0  0  0  0  0  0  0  0
    0.4113   -0.7151    0.0000 N   0  0  0  0  0  0  0  0  0  0  0  0
    1.2339   -0.7151    0.0000 C   0  0  0  0  0  0  0  0  0  0  0  0
    1.6453    0.0000    0.0000 C   0  0  0  0  0  0  0  0  0  0  0  0
    1.6453   -1.4266    0.0000 C   0  0  0  0  0  0  0  0  0  0  0  0
    2.4716    0.0000    0.0000 C   0  0  0  0  0  0  0  0  0  0  0  0
    2.4716   -1.4266    0.0000 C   0  0  0  0  0  0  0  0  0  0  0  0
    2.8829   -0.7151    0.0000 C   0  0  0  0  0  0  0  0  0  0  0  0
    3.7055   -0.7151    0.0000 O   0  0  0  0  0  0  0  0  0  0  0  0
  1  2  2  0  0  0  0
  2  3  1  0  0  0  0
  3  4  2  0  0  0  0
  3  5  1  0  0  0  0
  4  6  1  0  0  0  0
  7  5  2  0  0  0  0
  6  8  2  0  0  0  0
  8  7  1  0  0  0  0
  8  9  1  0  0  0  0
M  END
>  <Name>
p-Quinone monooxime

>  <IGC50>
3.65

>  <CAS>
104-91-6

>  <SET>
ws

>  <Species>
Tetrahymena pyriformis

>  <Test duration>
48h

$$$$

  Mrv1808 07152009202D          

  8  8  0  0  0  0            999 V2000
    2.8661    1.6614    0.0000 I   0  0  0  0  0  0  0  0  0  0  0  0
    2.1599    1.2461    0.0000 C   0  0  0  0  0  0  0  0  0  0  0  0
    1.4123    1.7030    0.0000 C   0  0  0  0  0  0  0  0  0  0  0  0
    2.1599    0.4569    0.0000 C   0  0  0  0  0  0  0  0  0  0  0  0
    0.7476    1.2461    0.0000 C   0  0  0  0  0  0  0  0  0  0  0  0
    1.4538    0.0000    0.0000 C   0  0  0  0  0  0  0  0  0  0  0  0
    0.0000    1.6614    0.0000 N   0  0  0  0  0  0  0  0  0  0  0  0
    0.7476    0.4153    0.0000 C   0  0  0  0  0  0  0  0  0  0  0  0
  1  2  1  0  0  0  0
  3  2  2  0  0  0  0
  2  4  1  0  0  0  0
  5  3  1  0  0  0  0
  4  6  2  0  0  0  0
  5  7  1  0  0  0  0
  8  5  2  0  0  0  0
  6  8  1  0  0  0  0
M  END
>  <Name>
Benzenamine, 3-iodo-

>  <IGC50>
3.65

>  <CAS>
626-01-7

>  <SET>
ws

>  <Species>
Tetrahymena pyriformis

>  <Test duration>
48h

$$$$

  Mrv1808 07152009202D          

  9  8  0  0  0  0            999 V2000
    4.2909   -1.2401    0.0000 C   0  0  0  0  0  0  0  0  0  0  0  0
    3.5743   -0.8239    0.0000 C   0  0  0  0  0  0  0  0  0  0  0  0
    2.8620   -1.2401    0.0000 C   0  0  0  0  0  0  0  0  0  0  0  0
    2.8620   -2.0639    0.0000 O   0  0  0  0  0  0  0  0  0  0  0  0
    2.1454   -0.8239    0.0000 O   0  0  0  0  0  0  0  0  0  0  0  0
    1.4289   -1.2401    0.0000 C   0  0  0  0  0  0  0  0  0  0  0  0
    0.7166   -0.8239    0.0000 C   0  0  0  0  0  0  0  0  0  0  0  0
    0.0000   -1.2401    0.0000 O   0  0  0  0  0  0  0  0  0  0  0  0
    0.7166    0.0000    0.0000 C   0  0  0  0  0  0  0  0  0  0  0  0
  1  2  2  0  0  0  0
  2  3  1  0  0  0  0
  3  4  2  0  0  0  0
  3  5  1  0  0  0  0
  5  6  1  0  0  0  0
  6  7  1  0  0  0  0
  7  8  1  0  0  0  0
  7  9  1  0  0  0  0
M  END
>  <Name>
2-Propenoic acid, 2-hydroxypropyl ester (9CI)

>  <IGC50>
3.65

>  <CAS>
999-61-1

>  <SET>
ws

>  <Species>
Tetrahymena pyriformis

>  <Test duration>
48h

$$$$

  Mrv1808 07152009203D          

 15 16  0  0  0  0            999 V2000
   -1.1170    3.1283   -0.0790 O   0  0  0  0  0  0  0  0  0  0  0  0
    0.0063    2.3338   -0.4489 C   0  0  0  0  0  0  0  0  0  0  0  0
    0.0353    1.0186    0.3788 C   0  0  1  0  0  0  0  0  0  0  0  0
   -1.1781    0.1634    0.2330 C   0  0  0  0  0  0  0  0  0  0  0  0
    1.3397    0.2425    0.1394 C   0  0  0  0  0  0  0  0  0  0  0  0
   -1.5902   -0.6485    1.2897 C   0  0  0  0  0  0  0  0  0  0  0  0
   -1.9004    0.1753   -0.9601 C   0  0  0  0  0  0  0  0  0  0  0  0
    1.3744   -0.6766   -0.8799 C   0  0  0  0  0  0  0  0  0  0  0  0
    2.4124    0.5021    0.9558 C   0  0  0  0  0  0  0  0  0  0  0  0
   -2.7246   -1.4487    1.1533 C   0  0  0  0  0  0  0  0  0  0  0  0
   -3.0349   -0.6247   -1.0966 C   0  0  0  0  0  0  0  0  0  0  0  0
    2.5584   -1.3815   -1.0969 C   0  0  0  0  0  0  0  0  0  0  0  0
    3.5964   -0.2027    0.7388 C   0  0  0  0  0  0  0  0  0  0  0  0
   -3.4470   -1.4367   -0.0399 C   0  0  0  0  0  0  0  0  0  0  0  0
    3.6694   -1.1445   -0.2876 C   0  0  0  0  0  0  0  0  0  0  0  0
  1  2  1  0  0  0  0
  3  2  1  0  0  0  0
  3  4  1  0  0  0  0
  3  5  1  0  0  0  0
  4  6  2  0  0  0  0
  4  7  1  0  0  0  0
  5  8  2  0  0  0  0
  5  9  1  0  0  0  0
  6 10  1  0  0  0  0
  7 11  2  0  0  0  0
  8 12  1  0  0  0  0
  9 13  2  0  0  0  0
 10 14  2  0  0  0  0
 11 14  1  0  0  0  0
 12 15  2  0  0  0  0
 13 15  1  0  0  0  0
M  END
>  <Name>
2,2-diphenylethanol

>  <IGC50>
3.65

>  <CAS>
1883-32-5

>  <SET>
ws

>  <Species>
Tetrahymena pyriformis

>  <Test duration>
48h

$$$$

  Mrv1808 07152009202D          

 13 13  0  0  0  0            999 V2000
    1.2351   -2.1392    0.0000 C   0  0  0  0  0  0  0  0  0  0  0  0
    0.8251   -1.4278    0.0000 C   0  0  0  0  0  0  0  0  0  0  0  0
    0.0000   -1.4278    0.0000 C   0  0  0  0  0  0  0  0  0  0  0  0
    1.2351   -0.7114    0.0000 C   0  0  0  0  0  0  0  0  0  0  0  0
    0.8251    0.0000    0.0000 O   0  0  0  0  0  0  0  0  0  0  0  0
    2.0601   -0.7114    0.0000 O   0  0  0  0  0  0  0  0  0  0  0  0
    2.4702   -1.4278    0.0000 C   0  0  0  0  0  0  0  0  0  0  0  0
    3.2952   -1.4278    0.0000 C   0  0  0  0  0  0  0  0  0  0  0  0
    3.7053   -0.7114    0.0000 C   0  0  0  0  0  0  0  0  0  0  0  0
    3.7053   -2.1392    0.0000 C   0  0  0  0  0  0  0  0  0  0  0  0
    4.5303   -0.7114    0.0000 C   0  0  0  0  0  0  0  0  0  0  0  0
    4.5303   -2.1392    0.0000 C   0  0  0  0  0  0  0  0  0  0  0  0
    4.9403   -1.4278    0.0000 C   0  0  0  0  0  0  0  0  0  0  0  0
  1  2  2  0  0  0  0
  2  3  1  0  0  0  0
  2  4  1  0  0  0  0
  4  5  2  0  0  0  0
  4  6  1  0  0  0  0
  6  7  1  0  0  0  0
  7  8  1  0  0  0  0
  8  9  2  0  0  0  0
  8 10  1  0  0  0  0
  9 11  1  0  0  0  0
 12 10  2  0  0  0  0
 11 13  2  0  0  0  0
 13 12  1  0  0  0  0
M  END
>  <Name>
2-Propenoic acid, 2-methyl-, phenylmethyl ester

>  <IGC50>
3.65

>  <CAS>
2495-37-6

>  <SET>
ws

>  <Species>
Tetrahymena pyriformis

>  <Test duration>
48h

$$$$

  Mrv1808 07152009202D          

 10 10  0  0  0  0            999 V2000
    2.0662   -1.5385    0.0000 C   0  0  0  0  0  0  0  0  0  0  0  0
    1.2412   -1.5385    0.0000 C   0  0  0  0  0  0  0  0  0  0  0  0
    2.4749   -0.8213    0.0000 C   0  0  0  0  0  0  0  0  0  0  0  0
    0.8250   -0.8213    0.0000 C   0  0  0  0  0  0  0  0  0  0  0  0
    2.0662   -0.1189    0.0000 C   0  0  0  0  0  0  0  0  0  0  0  0
    3.2999   -0.8213    0.0000 N   0  3  0  0  0  0  0  0  0  0  0  0
    1.2412   -0.1189    0.0000 C   0  0  0  0  0  0  0  0  0  0  0  0
    0.0000   -0.8213    0.0000 C   0  0  0  0  0  0  0  0  0  0  0  0
    3.7161   -1.5385    0.0000 O   0  0  0  0  0  0  0  0  0  0  0  0
    3.4969    0.0000    0.0000 O   0  5  0  0  0  0  0  0  0  0  0  0
  1  2  2  0  0  0  0
  1  3  1  0  0  0  0
  2  4  1  0  0  0  0
  3  5  2  0  0  0  0
  3  6  1  0  0  0  0
  4  7  2  0  0  0  0
  4  8  1  0  0  0  0
  7  5  1  0  0  0  0
  6  9  2  0  0  0  0
  6 10  1  0  0  0  0
M  CHG  2   6   1  10  -1
M  END
>  <Name>
Benzene, 1-methyl-4-nitro-

>  <IGC50>
3.65

>  <CAS>
99-99-0

>  <SET>
ws

>  <Species>
Tetrahymena pyriformis

>  <Test duration>
48h

$$$$

  Mrv1808 07152009202D          

  6  5  0  0  0  0            999 V2000
    0.8250    0.0000    0.0000 C   0  0  0  0  0  0  0  0  0  0  0  0
    1.2364   -0.7135    0.0000 C   0  0  0  0  0  0  0  0  0  0  0  0
    0.8250   -1.4292    0.0000 C   0  0  0  0  0  0  0  0  0  0  0  0
    2.0614   -0.7135    0.0000 O   0  0  0  0  0  0  0  0  0  0  0  0
    1.2364   -2.1428    0.0000 Cl  0  0  0  0  0  0  0  0  0  0  0  0
    0.0000   -1.4292    0.0000 Cl  0  0  0  0  0  0  0  0  0  0  0  0
  1  2  1  0  0  0  0
  2  3  1  0  0  0  0
  2  4  2  0  0  0  0
  3  5  1  0  0  0  0
  3  6  1  0  0  0  0
M  END
>  <Name>
2-Propanone, 1,1-dichloro-

>  <IGC50>
3.641

>  <CAS>
513-88-2

>  <SET>
ws

>  <Species>
Tetrahymena pyriformis

>  <Test duration>
48h

$$$$

  Mrv1808 07152009202D          

 10 10  0  0  0  0            999 V2000
    4.5329   -0.7162    0.0000 O   0  0  0  0  0  0  0  0  0  0  0  0
    3.7079   -0.7162    0.0000 C   0  0  0  0  0  0  0  0  0  0  0  0
    3.2954   -1.4279    0.0000 C   0  0  0  0  0  0  0  0  0  0  0  0
    3.2954    0.0000    0.0000 C   0  0  0  0  0  0  0  0  0  0  0  0
    2.4704   -1.4279    0.0000 C   0  0  0  0  0  0  0  0  0  0  0  0
    2.4704    0.0000    0.0000 C   0  0  0  0  0  0  0  0  0  0  0  0
    2.0625   -0.7162    0.0000 C   0  0  0  0  0  0  0  0  0  0  0  0
    1.2375   -0.7162    0.0000 C   0  0  0  0  0  0  0  0  0  0  0  0
    0.8250    0.0000    0.0000 C   0  0  0  0  0  0  0  0  0  0  0  0
    0.0000    0.0000    0.0000 C   0  0  0  0  0  0  0  0  0  0  0  0
  1  2  1  0  0  0  0
  2  3  2  0  0  0  0
  2  4  1  0  0  0  0
  3  5  1  0  0  0  0
  6  4  2  0  0  0  0
  5  7  2  0  0  0  0
  7  6  1  0  0  0  0
  7  8  1  0  0  0  0
  8  9  1  0  0  0  0
  9 10  1  0  0  0  0
M  END
>  <Name>
Phenol, 4-propyl-

>  <IGC50>
3.64

>  <CAS>
645-56-7

>  <SET>
ws

>  <Species>
Tetrahymena pyriformis

>  <Test duration>
48h

$$$$

  Mrv1808 07152009202D          

  6  6  0  0  0  0            999 V2000
    0.0000    0.6625    0.0000 O   0  0  0  0  0  0  0  0  0  0  0  0
    0.8282    0.6625    0.0000 C   0  0  0  0  0  0  0  0  0  0  0  0
    1.2836    0.0000    0.0000 C   0  0  0  0  0  0  0  0  0  0  0  0
    1.2836    1.3251    0.0000 C   0  0  0  0  0  0  0  0  0  0  0  0
    2.0703    0.2484    0.0000 C   0  0  0  0  0  0  0  0  0  0  0  0
    2.0703    1.0766    0.0000 C   0  0  0  0  0  0  0  0  0  0  0  0
  1  2  2  0  0  0  0
  2  3  1  0  0  0  0
  4  2  1  0  0  0  0
  3  5  1  0  0  0  0
  6  4  2  0  0  0  0
  5  6  1  0  0  0  0
M  END
>  <Name>
cyclopent-2-en-1-one

>  <IGC50>
3.64

>  <CAS>
930-30-3

>  <SET>
ws

>  <Species>
Tetrahymena pyriformis

>  <Test duration>
48h

$$$$

  Mrv1808 07152009202D          

 12 12  0  0  0  0            999 V2000
    4.3501    0.4183    0.0000 C   0  0  0  0  0  0  0  0  0  0  0  0
    3.6390    0.0000    0.0000 C   0  0  0  0  0  0  0  0  0  0  0  0
    4.3501    1.2548    0.0000 C   0  0  0  0  0  0  0  0  0  0  0  0
    2.9280    0.4183    0.0000 C   0  0  0  0  0  0  0  0  0  0  0  0
    3.6390    1.6731    0.0000 C   0  0  0  0  0  0  0  0  0  0  0  0
    2.9280    1.2548    0.0000 C   0  0  0  0  0  0  0  0  0  0  0  0
    2.1751    1.6731    0.0000 C   0  0  0  0  0  0  0  0  0  0  0  0
    1.4640    1.2548    0.0000 C   0  0  0  0  0  0  0  0  0  0  0  0
    0.7529    1.6731    0.0000 C   0  0  0  0  0  0  0  0  0  0  0  0
    1.4640    0.4183    0.0000 C   0  0  0  0  0  0  0  0  0  0  0  0
    0.0000    1.2548    0.0000 N   0  0  0  0  0  0  0  0  0  0  0  0
    0.7529    0.0000    0.0000 N   0  0  0  0  0  0  0  0  0  0  0  0
  2  1  2  0  0  0  0
  1  3  1  0  0  0  0
  4  2  1  0  0  0  0
  3  5  2  0  0  0  0
  6  4  2  0  0  0  0
  5  6  1  0  0  0  0
  6  7  1  0  0  0  0
  7  8  2  0  0  0  0
  8  9  1  0  0  0  0
  8 10  1  0  0  0  0
  9 11  3  0  0  0  0
 10 12  3  0  0  0  0
M  END
>  <Name>
Propanedinitrile, (phenylmethylene)- (9CI)

>  <IGC50>
3.64

>  <CAS>
2700-22-3

>  <SET>
ws

>  <Species>
Tetrahymena pyriformis

>  <Test duration>
48h

$$$$

  Mrv1808 07152009203D          

  9  9  0  0  0  0            999 V2000
    2.5397   -0.1887   -1.6245 Br  0  0  0  0  0  0  0  0  0  0  0  0
    1.7092    0.4939    0.0008 C   0  0  2  0  0  0  0  0  0  0  0  0
    2.5393   -0.1935    1.6242 Br  0  0  0  0  0  0  0  0  0  0  0  0
    0.2413    0.2290    0.0001 C   0  0  0  0  0  0  0  0  0  0  0  0
   -0.6595    1.2940    0.0015 C   0  0  0  0  0  0  0  0  0  0  0  0
   -0.2305   -1.0835   -0.0014 C   0  0  0  0  0  0  0  0  0  0  0  0
   -2.0323    1.0463    0.0014 C   0  0  0  0  0  0  0  0  0  0  0  0
   -1.6032   -1.3313   -0.0017 C   0  0  0  0  0  0  0  0  0  0  0  0
   -2.5041   -0.2663   -0.0003 C   0  0  0  0  0  0  0  0  0  0  0  0
  1  2  1  0  0  0  0
  3  2  1  0  0  0  0
  4  2  1  0  0  0  0
  4  5  2  0  0  0  0
  4  6  1  0  0  0  0
  5  7  1  0  0  0  0
  6  8  2  0  0  0  0
  7  9  2  0  0  0  0
  8  9  1  0  0  0  0
M  END
>  <Name>
bis(bromanyl)methylbenzene

>  <IGC50>
3.64

>  <CAS>
618-31-5

>  <SET>
ws

>  <Species>
Tetrahymena pyriformis

>  <Test duration>
48h

$$$$

  Mrv1808 07152009202D          

  8  8  0  0  0  0            999 V2000
    0.0000    0.0000    0.0000 Br  0  0  0  0  0  0  0  0  0  0  0  0
    0.4125   -0.7154    0.0000 C   0  0  0  0  0  0  0  0  0  0  0  0
    1.2375   -0.7154    0.0000 C   0  0  0  0  0  0  0  0  0  0  0  0
    1.6471    0.0000    0.0000 C   0  0  0  0  0  0  0  0  0  0  0  0
    1.6471   -1.4279    0.0000 C   0  0  0  0  0  0  0  0  0  0  0  0
    2.4721    0.0000    0.0000 C   0  0  0  0  0  0  0  0  0  0  0  0
    2.4721   -1.4279    0.0000 C   0  0  0  0  0  0  0  0  0  0  0  0
    2.8846   -0.7154    0.0000 C   0  0  0  0  0  0  0  0  0  0  0  0
  1  2  1  0  0  0  0
  2  3  1  0  0  0  0
  3  4  2  0  0  0  0
  3  5  1  0  0  0  0
  4  6  1  0  0  0  0
  7  5  2  0  0  0  0
  6  8  2  0  0  0  0
  8  7  1  0  0  0  0
M  END
>  <Name>
Benzene, (bromomethyl)-

>  <IGC50>
3.638

>  <CAS>
100-39-0

>  <SET>
ws

>  <Species>
Tetrahymena pyriformis

>  <Test duration>
48h

$$$$

  Mrv1808 07152009202D          

 12 11  0  0  0  0            999 V2000
    2.0607    0.0000    0.0000 C   0  0  0  0  0  0  0  0  0  0  0  0
    1.2357    0.0000    0.0000 C   0  0  0  0  0  0  0  0  0  0  0  0
    0.8250   -0.7143    0.0000 O   0  0  0  0  0  0  0  0  0  0  0  0
    1.2357   -1.4285    0.0000 C   0  0  0  0  0  0  0  0  0  0  0  0
    2.0607   -1.4285    0.0000 O   0  0  0  0  0  0  0  0  0  0  0  0
    0.8250   -2.1428    0.0000 C   0  0  0  0  0  0  0  0  0  0  0  0
    0.0000   -2.1428    0.0000 Cl  0  0  0  0  0  0  0  0  0  0  0  0
    1.2357   -2.8571    0.0000 C   0  0  0  0  0  0  0  0  0  0  0  0
    0.8250   -3.5713    0.0000 O   0  0  0  0  0  0  0  0  0  0  0  0
    2.0607   -2.8571    0.0000 O   0  0  0  0  0  0  0  0  0  0  0  0
    2.4749   -3.5713    0.0000 C   0  0  0  0  0  0  0  0  0  0  0  0
    3.2999   -3.5713    0.0000 C   0  0  0  0  0  0  0  0  0  0  0  0
  1  2  1  0  0  0  0
  2  3  1  0  0  0  0
  3  4  1  0  0  0  0
  4  5  2  0  0  0  0
  4  6  1  0  0  0  0
  6  7  1  0  0  0  0
  6  8  1  0  0  0  0
  8  9  2  0  0  0  0
  8 10  1  0  0  0  0
 10 11  1  0  0  0  0
 11 12  1  0  0  0  0
M  END
>  <Name>
Propanedioic acid, chloro-, diethyl ester

>  <IGC50>
3.635

>  <CAS>
14064-10-9

>  <SET>
ws

>  <Species>
Tetrahymena pyriformis

>  <Test duration>
48h

$$$$

  Mrv1808 07152009203D          

 13 14  0  0  0  0            999 V2000
    2.9472   -1.1737    0.5149 C   0  0  0  0  0  0  0  0  0  0  0  0
    1.7962   -1.1991   -0.2717 C   0  0  0  0  0  0  0  0  0  0  0  0
    3.5147   -0.0093    0.9052 N   0  0  0  0  0  0  0  0  0  0  0  0
    1.2144    0.0071   -0.6662 C   0  0  0  0  0  0  0  0  0  0  0  0
    2.9549    1.1631    0.5281 C   0  0  0  0  0  0  0  0  0  0  0  0
    1.8038    1.2049   -0.2578 C   0  0  0  0  0  0  0  0  0  0  0  0
   -0.0191    0.0156   -1.5129 C   0  0  0  0  0  0  0  0  0  0  0  0
   -1.2514    0.0069   -0.6630 C   0  0  0  0  0  0  0  0  0  0  0  0
   -1.8347    1.2089   -0.2597 C   0  0  0  0  0  0  0  0  0  0  0  0
   -1.8256   -1.2034   -0.2719 C   0  0  0  0  0  0  0  0  0  0  0  0
   -2.9824    1.1985    0.5247 C   0  0  0  0  0  0  0  0  0  0  0  0
   -2.9735   -1.2097    0.5123 C   0  0  0  0  0  0  0  0  0  0  0  0
   -3.5533   -0.0097    0.9106 C   0  0  0  0  0  0  0  0  0  0  0  0
  1  2  1  0  0  0  0
  1  3  2  0  0  0  0
  2  4  2  0  0  0  0
  5  3  1  0  0  0  0
  4  6  1  0  0  0  0
  4  7  1  0  0  0  0
  6  5  2  0  0  0  0
  7  8  1  0  0  0  0
  8  9  1  0  0  0  0
  8 10  2  0  0  0  0
  9 11  2  0  0  0  0
 12 10  1  0  0  0  0
 11 13  1  0  0  0  0
 13 12  2  0  0  0  0
M  END
>  <Name>
Pyridine, 4-(phenylmethyl)-

>  <IGC50>
3.63

>  <CAS>
2116-65-6

>  <SET>
ws

>  <Species>
Tetrahymena pyriformis

>  <Test duration>
48h

$$$$

  Mrv1808 07152009202D          

  5  4  0  0  0  0            999 V2000
    0.0000    0.4154    0.0000 C   0  0  0  0  0  0  0  0  0  0  0  0
    0.7477    0.8307    0.0000 C   0  0  0  0  0  0  0  0  0  0  0  0
    0.7477    1.6615    0.0000 Br  0  0  0  0  0  0  0  0  0  0  0  0
    1.4538    0.4154    0.0000 C   0  0  0  0  0  0  0  0  0  0  0  0
    2.1599    0.0000    0.0000 N   0  0  0  0  0  0  0  0  0  0  0  0
  1  2  1  0  0  0  0
  2  3  1  0  0  0  0
  2  4  1  0  0  0  0
  4  5  3  0  0  0  0
M  END
>  <Name>
Propanenitrile, 2-bromo-

>  <IGC50>
3.626

>  <CAS>
19481-82-4

>  <SET>
ws

>  <Species>
Tetrahymena pyriformis

>  <Test duration>
48h

$$$$

  Mrv1808 07152009202D          

  8  7  0  0  0  0            999 V2000
    2.9280    0.4183    0.0000 C   0  0  0  0  0  0  0  0  0  0  0  0
    2.1751    0.0000    0.0000 C   0  0  0  0  0  0  0  0  0  0  0  0
    3.6391    0.0000    0.0000 C   0  0  0  0  0  0  0  0  0  0  0  0
    1.4640    0.4183    0.0000 C   0  0  0  0  0  0  0  0  0  0  0  0
    4.3502    0.4183    0.0000 C   0  0  0  0  0  0  0  0  0  0  0  0
    0.7529    0.0000    0.0000 C   0  0  0  0  0  0  0  0  0  0  0  0
    5.1031    0.0000    0.0000 S   0  0  0  0  0  0  0  0  0  0  0  0
    0.0000    0.4183    0.0000 S   0  0  0  0  0  0  0  0  0  0  0  0
  1  2  1  0  0  0  0
  1  3  1  0  0  0  0
  2  4  1  0  0  0  0
  3  5  1  0  0  0  0
  4  6  1  0  0  0  0
  5  7  1  0  0  0  0
  6  8  1  0  0  0  0
M  END
>  <Name>
Hexane-1,6-dithiol

>  <IGC50>
3.626

>  <CAS>
1191-43-1

>  <SET>
ws

>  <Species>
Tetrahymena pyriformis

>  <Test duration>
48h

$$$$

  Mrv1808 07152009202D          

 10  9  0  0  0  0            999 V2000
    0.0000   -0.4121    0.0000 C   0  0  0  0  0  0  0  0  0  0  0  0
    0.7147    0.0000    0.0000 C   0  0  0  0  0  0  0  0  0  0  0  0
    1.4295   -0.4121    0.0000 C   0  0  0  0  0  0  0  0  0  0  0  0
    2.1442    0.0000    0.0000 C   0  0  0  0  0  0  0  0  0  0  0  0
    2.8589   -0.4121    0.0000 C   0  0  0  0  0  0  0  0  0  0  0  0
    3.5801    0.0000    0.0000 C   0  0  0  0  0  0  0  0  0  0  0  0
    4.2949   -0.4121    0.0000 C   0  0  0  0  0  0  0  0  0  0  0  0
    5.0096    0.0000    0.0000 C   0  0  0  0  0  0  0  0  0  0  0  0
    5.7243   -0.4121    0.0000 C   0  0  0  0  0  0  0  0  0  0  0  0
    6.4391   -0.8242    0.0000 N   0  0  0  0  0  0  0  0  0  0  0  0
  1  2  1  0  0  0  0
  2  3  1  0  0  0  0
  3  4  1  0  0  0  0
  4  5  1  0  0  0  0
  5  6  1  0  0  0  0
  6  7  1  0  0  0  0
  7  8  1  0  0  0  0
  8  9  1  0  0  0  0
  9 10  3  0  0  0  0
M  END
>  <Name>
n-Octanenitrile

>  <IGC50>
3.625

>  <CAS>
2243-27-8

>  <SET>
ws

>  <Species>
Tetrahymena pyriformis

>  <Test duration>
48h

$$$$

  Mrv1808 07152009202D          

 13 12  0  0  0  0            999 V2000
    0.0000    1.8927    0.0000 C   0  0  0  0  0  0  0  0  0  0  0  0
    0.8250    1.8927    0.0000 C   0  0  0  0  0  0  0  0  0  0  0  0
    1.3104    1.4560    0.0000 C   0  0  0  0  0  0  0  0  0  0  0  0
    2.1839    1.4560    0.0000 C   0  0  0  0  0  0  0  0  0  0  0  0
    2.7178    0.9706    0.0000 O   0  0  0  0  0  0  0  0  0  0  0  0
    3.5914    0.9706    0.0000 S   0  0  0  0  0  0  0  0  0  0  0  0
    4.4164    0.9706    0.0000 O   0  0  0  0  0  0  0  0  0  0  0  0
    3.5914    1.9413    0.0000 O   0  0  0  0  0  0  0  0  0  0  0  0
    3.5914    0.0000    0.0000 O   0  0  0  0  0  0  0  0  0  0  0  0
    4.9017    1.4560    0.0000 C   0  0  0  0  0  0  0  0  0  0  0  0
    5.7752    1.4560    0.0000 C   0  0  0  0  0  0  0  0  0  0  0  0
    6.2605    1.8927    0.0000 C   0  0  0  0  0  0  0  0  0  0  0  0
    6.9400    1.8927    0.0000 C   0  0  0  0  0  0  0  0  0  0  0  0
  1  2  1  0  0  0  0
  2  3  1  0  0  0  0
  3  4  1  0  0  0  0
  4  5  1  0  0  0  0
  5  6  1  0  0  0  0
  6  7  1  0  0  0  0
  6  8  2  0  0  0  0
  6  9  2  0  0  0  0
  7 10  1  0  0  0  0
 10 11  1  0  0  0  0
 12 11  1  0  0  0  0
 13 12  1  0  0  0  0
M  END
>  <Name>
Sulfuric acid, dibutyl ester

>  <IGC50>
3.621

>  <CAS>
625-22-9

>  <SET>
ws

>  <Species>
Tetrahymena pyriformis

>  <Test duration>
48h

$$$$

  Mrv1808 07152009202D          

 11 11  0  0  0  0            999 V2000
    1.6451   -2.1379    0.0000 C   0  0  0  0  0  0  0  0  0  0  0  0
    1.2338   -1.4265    0.0000 C   0  0  0  0  0  0  0  0  0  0  0  0
    2.4714   -2.1379    0.0000 C   0  0  0  0  0  0  0  0  0  0  0  0
    0.4113   -1.4265    0.0000 C   0  0  0  0  0  0  0  0  0  0  0  0
    1.6451   -0.7114    0.0000 C   0  0  0  0  0  0  0  0  0  0  0  0
    2.8827   -1.4265    0.0000 C   0  0  0  0  0  0  0  0  0  0  0  0
    0.0000   -2.1379    0.0000 O   0  0  0  0  0  0  0  0  0  0  0  0
    0.0000   -0.7114    0.0000 C   0  0  0  0  0  0  0  0  0  0  0  0
    1.2338    0.0000    0.0000 Cl  0  0  0  0  0  0  0  0  0  0  0  0
    2.4714   -0.7114    0.0000 C   0  0  0  0  0  0  0  0  0  0  0  0
    3.7052   -1.4265    0.0000 Cl  0  0  0  0  0  0  0  0  0  0  0  0
  1  2  2  0  0  0  0
  1  3  1  0  0  0  0
  2  4  1  0  0  0  0
  2  5  1  0  0  0  0
  6  3  2  0  0  0  0
  4  7  2  0  0  0  0
  4  8  1  0  0  0  0
  5  9  1  0  0  0  0
  5 10  2  0  0  0  0
 10  6  1  0  0  0  0
  6 11  1  0  0  0  0
M  END
>  <Name>
Acetophenone, 2',4'-dichloro- (8CI)

>  <IGC50>
3.62

>  <CAS>
2234-16-4

>  <SET>
ws

>  <Species>
Tetrahymena pyriformis

>  <Test duration>
48h

$$$$

  Mrv1808 07152009202D          

 10 11  0  0  0  0            999 V2000
    3.5473    0.8250    0.0000 C   0  0  0  0  0  0  0  0  0  0  0  0
    2.6811    0.8250    0.0000 C   0  0  0  0  0  0  0  0  0  0  0  0
    2.1862    1.4850    0.0000 C   0  0  0  0  0  0  0  0  0  0  0  0
    2.2274    0.1650    0.0000 O   0  0  0  0  0  0  0  0  0  0  0  0
    1.4436    1.2375    0.0000 C   0  0  0  0  0  0  0  0  0  0  0  0
    1.4436    0.4125    0.0000 C   0  0  0  0  0  0  0  0  0  0  0  0
    0.7424    1.6499    0.0000 C   0  0  0  0  0  0  0  0  0  0  0  0
    0.7424    0.0000    0.0000 C   0  0  0  0  0  0  0  0  0  0  0  0
    0.0000    1.2375    0.0000 C   0  0  0  0  0  0  0  0  0  0  0  0
    0.0000    0.4125    0.0000 C   0  0  0  0  0  0  0  0  0  0  0  0
  1  2  1  0  0  0  0
  3  2  2  0  0  0  0
  2  4  1  0  0  0  0
  5  3  1  0  0  0  0
  4  6  1  0  0  0  0
  6  5  2  0  0  0  0
  7  5  1  0  0  0  0
  6  8  1  0  0  0  0
  9  7  2  0  0  0  0
  8 10  2  0  0  0  0
 10  9  1  0  0  0  0
M  END
>  <Name>
2-methyl-1-benzofuran

>  <IGC50>
3.62

>  <CAS>
4265-25-2

>  <SET>
ws

>  <Species>
Tetrahymena pyriformis

>  <Test duration>
48h

$$$$

  Mrv1808 07152009203D          

 13 13  0  0  0  0            999 V2000
    3.5013    0.0832   -0.0892 O   0  0  0  0  0  0  0  0  0  0  0  0
    2.1416    0.0679   -0.0311 C   0  0  0  0  0  0  0  0  0  0  0  0
    4.1710   -1.1697    0.0425 C   0  0  0  0  0  0  0  0  0  0  0  0
    1.4249    1.2582   -0.1546 C   0  0  0  0  0  0  0  0  0  0  0  0
    1.4646   -1.1382    0.1502 C   0  0  0  0  0  0  0  0  0  0  0  0
    0.0313    1.2424   -0.0969 C   0  0  0  0  0  0  0  0  0  0  0  0
    0.0711   -1.1541    0.2079 C   0  0  0  0  0  0  0  0  0  0  0  0
   -0.6508    2.4163   -0.2166 O   0  0  0  0  0  0  0  0  0  0  0  0
   -0.6455    0.0362    0.0843 C   0  0  0  0  0  0  0  0  0  0  0  0
   -2.0998   -0.0025    0.1520 C   0  0  0  0  0  0  0  0  0  0  0  0
   -2.5846   -1.1951   -0.3183 O   0  0  0  0  0  0  0  0  0  0  0  0
   -2.8168    0.9056    0.5718 O   0  0  0  0  0  0  0  0  0  0  0  0
   -4.0083   -1.3502   -0.3020 C   0  0  0  0  0  0  0  0  0  0  0  0
  1  2  1  0  0  0  0
  1  3  1  0  0  0  0
  2  4  2  0  0  0  0
  2  5  1  0  0  0  0
  6  4  1  0  0  0  0
  7  5  2  0  0  0  0
  8  6  1  0  0  0  0
  9  6  2  0  0  0  0
  9  7  1  0  0  0  0
  9 10  1  0  0  0  0
 11 10  1  0  0  0  0
 12 10  2  0  0  0  0
 11 13  1  0  0  0  0
M  END
>  <Name>
methyl 2-hydroxy-4-methoxybenzoate

>  <IGC50>
3.62

>  <CAS>
5446-02-6

>  <SET>
ws

>  <Species>
Tetrahymena pyriformis

>  <Test duration>
48h

$$$$

  Mrv1808 07152009203D          

  8  8  0  0  0  0            999 V2000
    3.3140    0.4088    0.0004 Cl  0  0  0  0  0  0  0  0  0  0  0  0
    1.6434    0.0262   -0.0008 C   0  0  0  0  0  0  0  0  0  0  0  0
    0.4743    1.2775   -0.0002 S   0  0  0  0  0  0  0  0  0  0  0  0
    1.0633   -1.2232   -0.0002 C   0  0  0  0  0  0  0  0  0  0  0  0
   -0.8130    0.1484    0.0006 C   0  0  0  0  0  0  0  0  0  0  0  0
   -0.3598   -1.1523    0.0005 C   0  0  0  0  0  0  0  0  0  0  0  0
   -2.1577    0.6269    0.0003 C   0  0  0  0  0  0  0  0  0  0  0  0
   -3.1646   -0.1123   -0.0005 O   0  0  0  0  0  0  0  0  0  0  0  0
  1  2  1  0  0  0  0
  3  2  1  0  0  0  0
  4  2  2  0  0  0  0
  3  5  1  0  0  0  0
  6  4  1  0  0  0  0
  5  6  2  0  0  0  0
  5  7  1  0  0  0  0
  8  7  2  0  0  0  0
M  END
>  <Name>
5-chlorothiophene-2-carbaldehyde

>  <IGC50>
3.62

>  <CAS>
7283-96-7

>  <SET>
ws

>  <Species>
Tetrahymena pyriformis

>  <Test duration>
48h

$$$$

  Mrv1808 07152009202D          

 12 12  0  0  0  0            999 V2000
    1.2339   -1.4266    0.0000 C   0  0  0  0  0  0  0  0  0  0  0  0
    0.8226   -0.7115    0.0000 O   0  0  0  0  0  0  0  0  0  0  0  0
    2.0603   -1.4266    0.0000 C   0  0  0  0  0  0  0  0  0  0  0  0
    0.8226   -2.1381    0.0000 C   0  0  0  0  0  0  0  0  0  0  0  0
    1.2339    0.0000    0.0000 C   0  0  0  0  0  0  0  0  0  0  0  0
    2.4716   -2.1381    0.0000 C   0  0  0  0  0  0  0  0  0  0  0  0
    1.2339   -2.8532    0.0000 C   0  0  0  0  0  0  0  0  0  0  0  0
    0.0000   -2.1381    0.0000 O   0  0  0  0  0  0  0  0  0  0  0  0
    3.2942   -2.1381    0.0000 C   0  0  0  0  0  0  0  0  0  0  0  0
    2.0603   -2.8532    0.0000 C   0  0  0  0  0  0  0  0  0  0  0  0
    0.8226   -3.5647    0.0000 Br  0  0  0  0  0  0  0  0  0  0  0  0
    3.7055   -2.8532    0.0000 O   0  0  0  0  0  0  0  0  0  0  0  0
  1  2  1  0  0  0  0
  1  3  2  0  0  0  0
  1  4  1  0  0  0  0
  2  5  1  0  0  0  0
  3  6  1  0  0  0  0
  7  4  2  0  0  0  0
  4  8  1  0  0  0  0
  6  9  1  0  0  0  0
  6 10  2  0  0  0  0
 10  7  1  0  0  0  0
  7 11  1  0  0  0  0
  9 12  2  0  0  0  0
M  END
>  <Name>
Benzaldehyde, 3-bromo-4-hydroxy-5-methoxy-

>  <IGC50>
3.62

>  <CAS>
2973-76-4

>  <SET>
ws

>  <Species>
Tetrahymena pyriformis

>  <Test duration>
48h

$$$$

  Mrv1808 07152009202D          

  7  7  0  0  0  0            999 V2000
    0.7700    2.1450    0.0000 S   0  0  0  0  0  0  0  0  0  0  0  0
    1.2650    1.4575    0.0000 C   0  0  0  0  0  0  0  0  0  0  0  0
    0.0000    1.8700    0.0000 C   0  0  0  0  0  0  0  0  0  0  0  0
    2.0900    1.4575    0.0000 Br  0  0  0  0  0  0  0  0  0  0  0  0
    0.7700    0.7975    0.0000 C   0  0  0  0  0  0  0  0  0  0  0  0
    0.0000    1.0450    0.0000 C   0  0  0  0  0  0  0  0  0  0  0  0
    1.0450    0.0000    0.0000 C   0  0  0  0  0  0  0  0  0  0  0  0
  1  2  1  0  0  0  0
  1  3  1  0  0  0  0
  2  4  1  0  0  0  0
  2  5  2  0  0  0  0
  6  3  2  0  0  0  0
  5  7  1  0  0  0  0
  5  6  1  0  0  0  0
M  END
>  <Name>
2-bromo-3-methylthiophene

>  <IGC50>
3.62

>  <CAS>
14282-76-9

>  <SET>
ws

>  <Species>
Tetrahymena pyriformis

>  <Test duration>
48h

$$$$

  Mrv1808 07152009202D          

 10  9  0  0  0  0            999 V2000
    2.8862    1.2549    0.0000 C   0  0  0  0  0  0  0  0  0  0  0  0
    2.1751    0.8366    0.0000 C   0  0  0  0  0  0  0  0  0  0  0  0
    3.5973    0.8366    0.0000 C   0  0  0  0  0  0  0  0  0  0  0  0
    1.4221    1.2549    0.0000 C   0  0  0  0  0  0  0  0  0  0  0  0
    4.3502    1.2549    0.0000 C   0  0  0  0  0  0  0  0  0  0  0  0
    0.7111    0.8366    0.0000 C   0  0  0  0  0  0  0  0  0  0  0  0
    5.0612    0.8366    0.0000 C   0  0  0  0  0  0  0  0  0  0  0  0
    0.7111    0.0000    0.0000 C   0  0  0  0  0  0  0  0  0  0  0  0
    0.0000    1.2549    0.0000 O   0  0  0  0  0  0  0  0  0  0  0  0
    5.7724    1.2549    0.0000 C   0  0  0  0  0  0  0  0  0  0  0  0
  1  2  1  0  0  0  0
  1  3  1  0  0  0  0
  2  4  1  0  0  0  0
  3  5  1  0  0  0  0
  4  6  1  0  0  0  0
  5  7  1  0  0  0  0
  6  8  1  0  0  0  0
  6  9  1  0  0  0  0
  7 10  1  0  0  0  0
M  END
>  <Name>
2-Nonanol

>  <IGC50>
3.618

>  <CAS>
628-99-9

>  <SET>
ws

>  <Species>
Tetrahymena pyriformis

>  <Test duration>
48h

$$$$

  Mrv1808 07152009202D          

 13 13  0  0  0  0            999 V2000
    2.8875   -2.1450    0.0000 C   0  0  0  0  0  0  0  0  0  0  0  0
    3.7125   -2.1450    0.0000 C   0  0  0  0  0  0  0  0  0  0  0  0
    2.4750   -2.8586    0.0000 C   0  0  0  0  0  0  0  0  0  0  0  0
    2.4750   -1.4272    0.0000 C   0  0  0  0  0  0  0  0  0  0  0  0
    4.1249   -1.4272    0.0000 O   0  0  0  0  0  0  0  0  0  0  0  0
    2.8875   -3.5722    0.0000 O   0  0  0  0  0  0  0  0  0  0  0  0
    1.6500   -2.8586    0.0000 C   0  0  0  0  0  0  0  0  0  0  0  0
    1.6500   -1.4272    0.0000 C   0  0  0  0  0  0  0  0  0  0  0  0
    2.8875   -0.7136    0.0000 O   0  0  0  0  0  0  0  0  0  0  0  0
    1.2375   -2.1450    0.0000 C   0  0  0  0  0  0  0  0  0  0  0  0
    2.4750    0.0000    0.0000 C   0  0  0  0  0  0  0  0  0  0  0  0
    0.4125   -2.1450    0.0000 O   0  0  0  0  0  0  0  0  0  0  0  0
    0.0000   -2.8586    0.0000 C   0  0  0  0  0  0  0  0  0  0  0  0
  1  2  1  0  0  0  0
  1  3  2  0  0  0  0
  1  4  1  0  0  0  0
  2  5  2  0  0  0  0
  3  6  1  0  0  0  0
  3  7  1  0  0  0  0
  8  4  2  0  0  0  0
  4  9  1  0  0  0  0
  7 10  2  0  0  0  0
 10  8  1  0  0  0  0
  9 11  1  0  0  0  0
 10 12  1  0  0  0  0
 12 13  1  0  0  0  0
M  END
>  <Name>
4,6-Dimethoxysalicylaldehyde

>  <IGC50>
3.617

>  <CAS>
708-76-9

>  <SET>
ws

>  <Species>
Tetrahymena pyriformis

>  <Test duration>
48h

$$$$

  Mrv1808 07152009202D          

 10 10  0  0  0  0            999 V2000
    2.8875    0.7013    0.0000 C   0  0  0  0  0  0  0  0  0  0  0  0
    2.4749    1.4437    0.0000 C   0  0  0  0  0  0  0  0  0  0  0  0
    2.8875    2.1450    0.0000 C   0  0  0  0  0  0  0  0  0  0  0  0
    1.6500    1.4437    0.0000 C   0  0  0  0  0  0  0  0  0  0  0  0
    1.2375    0.7013    0.0000 C   0  0  0  0  0  0  0  0  0  0  0  0
    1.2375    2.1450    0.0000 C   0  0  0  0  0  0  0  0  0  0  0  0
    0.4125    0.7013    0.0000 C   0  0  0  0  0  0  0  0  0  0  0  0
    0.4125    2.1450    0.0000 C   0  0  0  0  0  0  0  0  0  0  0  0
    0.0000    0.0000    0.0000 O   0  0  0  0  0  0  0  0  0  0  0  0
    0.0000    1.4437    0.0000 C   0  0  0  0  0  0  0  0  0  0  0  0
  1  2  1  0  0  0  0
  2  3  1  0  0  0  0
  2  4  1  0  0  0  0
  5  4  2  0  0  0  0
  4  6  1  0  0  0  0
  7  5  1  0  0  0  0
  6  8  2  0  0  0  0
  7  9  1  0  0  0  0
 10  7  2  0  0  0  0
  8 10  1  0  0  0  0
M  END
>  <Name>
Phenol, 3-(1-methylethyl)-

>  <IGC50>
3.61

>  <CAS>
618-45-1

>  <SET>
ws

>  <Species>
Tetrahymena pyriformis

>  <Test duration>
48h

$$$$

  Mrv1808 07152009203D          

 11 11  0  0  0  0            999 V2000
    0.5386    1.1833   -0.0005 C   0  0  0  0  0  0  0  0  0  0  0  0
   -0.1782   -0.0444    0.0004 C   0  0  0  0  0  0  0  0  0  0  0  0
    1.9484    1.1996   -0.0018 C   0  0  0  0  0  0  0  0  0  0  0  0
   -0.0185    2.4115   -0.0008 O   0  0  0  0  0  0  0  0  0  0  0  0
    0.5661   -1.2523    0.0015 C   0  0  0  0  0  0  0  0  0  0  0  0
   -1.6562   -0.0200   -0.0003 N   0  3  0  0  0  0  0  0  0  0  0  0
    2.6433    0.0087   -0.0013 C   0  0  0  0  0  0  0  0  0  0  0  0
    1.9550   -1.2046    0.0007 C   0  0  0  0  0  0  0  0  0  0  0  0
   -0.0584   -2.6031    0.0036 C   0  0  0  0  0  0  0  0  0  0  0  0
   -2.3319   -1.0238   -0.0081 O   0  0  0  0  0  0  0  0  0  0  0  0
   -2.2130    1.0779    0.0066 O   0  5  0  0  0  0  0  0  0  0  0  0
  1  2  1  0  0  0  0
  1  3  2  0  0  0  0
  1  4  1  0  0  0  0
  2  5  2  0  0  0  0
  2  6  1  0  0  0  0
  7  3  1  0  0  0  0
  5  8  1  0  0  0  0
  5  9  1  0  0  0  0
  6 10  2  0  0  0  0
  6 11  1  0  0  0  0
  8  7  2  0  0  0  0
M  CHG  2   6   1  11  -1
M  END
>  <Name>
Phenol, 3-methyl-2-nitro- (9CI)

>  <IGC50>
3.61

>  <CAS>
4920-77-8

>  <SET>
ws

>  <Species>
Tetrahymena pyriformis

>  <Test duration>
48h

$$$$

  Mrv1808 07152009202D          

 10 10  0  0  0  0            999 V2000
    0.0000    1.1712    0.0000 C   0  0  0  0  0  0  0  0  0  0  0  0
    0.7529    1.5895    0.0000 C   0  0  0  0  0  0  0  0  0  0  0  0
    0.7529    2.4678    0.0000 C   0  0  0  0  0  0  0  0  0  0  0  0
    1.4640    1.1712    0.0000 C   0  0  0  0  0  0  0  0  0  0  0  0
    2.1750    1.5895    0.0000 C   0  0  0  0  0  0  0  0  0  0  0  0
    1.4640    0.4183    0.0000 C   0  0  0  0  0  0  0  0  0  0  0  0
    2.8861    1.1712    0.0000 C   0  0  0  0  0  0  0  0  0  0  0  0
    2.1750    0.0000    0.0000 C   0  0  0  0  0  0  0  0  0  0  0  0
    0.7529    0.0000    0.0000 O   0  0  0  0  0  0  0  0  0  0  0  0
    2.8861    0.4183    0.0000 C   0  0  0  0  0  0  0  0  0  0  0  0
  1  2  1  0  0  0  0
  2  3  1  0  0  0  0
  2  4  1  0  0  0  0
  4  5  2  0  0  0  0
  6  4  1  0  0  0  0
  5  7  1  0  0  0  0
  8  6  2  0  0  0  0
  6  9  1  0  0  0  0
  7 10  2  0  0  0  0
 10  8  1  0  0  0  0
M  END
>  <Name>
Phenol, 2-(1-methylethyl)-

>  <IGC50>
3.61

>  <CAS>
88-69-7

>  <SET>
ws

>  <Species>
Tetrahymena pyriformis

>  <Test duration>
48h

$$$$

  Mrv1808 07152009202D          

 10 10  0  0  0  0            999 V2000
    0.0000   -1.6500    0.0000 N   0  0  0  0  0  0  0  0  0  0  0  0
    0.7143   -1.2393    0.0000 C   0  0  0  0  0  0  0  0  0  0  0  0
    0.7143   -0.4143    0.0000 S   0  0  0  0  0  0  0  0  0  0  0  0
    1.4286   -1.6500    0.0000 N   0  0  0  0  0  0  0  0  0  0  0  0
    2.1429   -1.2393    0.0000 C   0  0  0  0  0  0  0  0  0  0  0  0
    2.1429   -0.4143    0.0000 C   0  0  0  0  0  0  0  0  0  0  0  0
    2.8572   -1.6500    0.0000 C   0  0  0  0  0  0  0  0  0  0  0  0
    2.8572    0.0000    0.0000 C   0  0  0  0  0  0  0  0  0  0  0  0
    3.5714   -1.2393    0.0000 C   0  0  0  0  0  0  0  0  0  0  0  0
    3.5714   -0.4143    0.0000 C   0  0  0  0  0  0  0  0  0  0  0  0
  1  2  1  0  0  0  0
  2  3  2  0  0  0  0
  2  4  1  0  0  0  0
  4  5  1  0  0  0  0
  5  6  2  0  0  0  0
  5  7  1  0  0  0  0
  6  8  1  0  0  0  0
  9  7  2  0  0  0  0
  8 10  2  0  0  0  0
 10  9  1  0  0  0  0
M  END
>  <Name>
Urea, 1-phenyl-2-thio-

>  <IGC50>
3.61

>  <CAS>
103-85-5

>  <SET>
ws

>  <Species>
Tetrahymena pyriformis

>  <Test duration>
48h

$$$$

  Mrv1808 07152009202D          

 12 12  0  0  0  0            999 V2000
    2.0603   -2.1418    0.0000 C   0  0  0  0  0  0  0  0  0  0  0  0
    2.4716   -2.8532    0.0000 O   0  0  0  0  0  0  0  0  0  0  0  0
    1.2339   -2.1418    0.0000 C   0  0  0  0  0  0  0  0  0  0  0  0
    2.4716   -1.4266    0.0000 C   0  0  0  0  0  0  0  0  0  0  0  0
    0.8226   -1.4266    0.0000 C   0  0  0  0  0  0  0  0  0  0  0  0
    2.0603   -0.7152    0.0000 C   0  0  0  0  0  0  0  0  0  0  0  0
    3.2942   -1.4266    0.0000 C   0  0  0  0  0  0  0  0  0  0  0  0
    0.0000   -1.4266    0.0000 O   0  0  0  0  0  0  0  0  0  0  0  0
    1.2339   -0.7152    0.0000 C   0  0  0  0  0  0  0  0  0  0  0  0
    3.7055   -2.1418    0.0000 O   0  0  0  0  0  0  0  0  0  0  0  0
    3.7055   -0.7152    0.0000 O   0  0  0  0  0  0  0  0  0  0  0  0
    3.2942    0.0000    0.0000 C   0  0  0  0  0  0  0  0  0  0  0  0
  1  2  1  0  0  0  0
  1  3  2  0  0  0  0
  1  4  1  0  0  0  0
  3  5  1  0  0  0  0
  6  4  2  0  0  0  0
  4  7  1  0  0  0  0
  5  8  1  0  0  0  0
  5  9  2  0  0  0  0
  9  6  1  0  0  0  0
  7 10  2  0  0  0  0
  7 11  1  0  0  0  0
 11 12  1  0  0  0  0
M  END
>  <Name>
Benzoic acid, 2,4-dihydroxy-, methyl ester

>  <IGC50>
3.61

>  <CAS>
2150-47-2

>  <SET>
ws

>  <Species>
Tetrahymena pyriformis

>  <Test duration>
48h

$$$$

  Mrv1808 07152009202D          

 12 12  0  0  0  0            999 V2000
    2.8464    0.4125    0.0000 C   0  0  0  0  0  0  0  0  0  0  0  0
    2.8464    1.2376    0.0000 C   0  0  0  0  0  0  0  0  0  0  0  0
    2.1039    0.0000    0.0000 C   0  0  0  0  0  0  0  0  0  0  0  0
    2.1039    1.6089    0.0000 C   0  0  0  0  0  0  0  0  0  0  0  0
    3.5065    1.6089    0.0000 C   0  0  0  0  0  0  0  0  0  0  0  0
    1.4026    0.4125    0.0000 C   0  0  0  0  0  0  0  0  0  0  0  0
    1.4026    1.2376    0.0000 C   0  0  0  0  0  0  0  0  0  0  0  0
    3.5065    2.4339    0.0000 O   0  0  0  0  0  0  0  0  0  0  0  0
    0.7013    0.0000    0.0000 O   0  0  0  0  0  0  0  0  0  0  0  0
    0.7013    1.6089    0.0000 N   0  0  0  0  0  0  0  0  0  0  0  0
    0.7013    2.4339    0.0000 O   0  0  0  0  0  0  0  0  0  0  0  0
    0.0000    1.2376    0.0000 O   0  0  0  0  0  0  0  0  0  0  0  0
  2  1  2  0  0  0  0
  1  3  1  0  0  0  0
  4  2  1  0  0  0  0
  2  5  1  0  0  0  0
  3  6  2  0  0  0  0
  7  4  2  0  0  0  0
  5  8  2  0  0  0  0
  6  7  1  0  0  0  0
  6  9  1  0  0  0  0
  7 10  1  0  0  0  0
 10 11  2  0  0  0  0
 10 12  2  0  0  0  0
M  END
>  <Name>
4-Hydroxy-3-nitrobenzaldehyde

>  <IGC50>
3.61

>  <CAS>
3011-34-5

>  <SET>
ws

>  <Species>
Tetrahymena pyriformis

>  <Test duration>
48h

$$$$

  Mrv1808 07152009202D          

 12 12  0  0  0  0            999 V2000
    2.0625    0.7013    0.0000 C   0  0  0  0  0  0  0  0  0  0  0  0
    2.4750    1.4438    0.0000 O   0  0  0  0  0  0  0  0  0  0  0  0
    1.2375    0.7013    0.0000 C   0  0  0  0  0  0  0  0  0  0  0  0
    3.2999    1.4438    0.0000 C   0  0  0  0  0  0  0  0  0  0  0  0
    0.8250    0.0000    0.0000 C   0  0  0  0  0  0  0  0  0  0  0  0
    3.7125    2.1450    0.0000 C   0  0  0  0  0  0  0  0  0  0  0  0
    3.7125    0.7013    0.0000 C   0  0  0  0  0  0  0  0  0  0  0  0
    0.0000    0.0000    0.0000 C   0  0  0  0  0  0  0  0  0  0  0  0
    4.5375    2.1450    0.0000 C   0  0  0  0  0  0  0  0  0  0  0  0
    4.5375    0.7013    0.0000 C   0  0  0  0  0  0  0  0  0  0  0  0
    4.9499    1.4438    0.0000 C   0  0  0  0  0  0  0  0  0  0  0  0
    5.7749    1.4438    0.0000 N   0  0  0  0  0  0  0  0  0  0  0  0
  1  2  1  0  0  0  0
  1  3  1  0  0  0  0
  2  4  1  0  0  0  0
  3  5  1  0  0  0  0
  6  4  2  0  0  0  0
  4  7  1  0  0  0  0
  5  8  1  0  0  0  0
  9  6  1  0  0  0  0
  7 10  2  0  0  0  0
 11  9  2  0  0  0  0
 10 11  1  0  0  0  0
 11 12  1  0  0  0  0
M  END
>  <Name>
Benzenamine, 4-butoxy-

>  <IGC50>
3.61

>  <CAS>
4344-55-2

>  <SET>
ws

>  <Species>
Tetrahymena pyriformis

>  <Test duration>
48h

$$$$

  Mrv1808 07152009202D          

 11 11  0  0  0  0            999 V2000
    2.0819    0.7223    0.0000 C   0  0  0  0  0  0  0  0  0  0  0  0
    1.2746    0.7223    0.0000 C   0  0  0  0  0  0  0  0  0  0  0  0
    2.5067    1.4021    0.0000 C   0  0  0  0  0  0  0  0  0  0  0  0
    0.8073    1.4021    0.0000 C   0  0  0  0  0  0  0  0  0  0  0  0
    2.0819    2.1669    0.0000 C   0  0  0  0  0  0  0  0  0  0  0  0
    3.3565    1.4021    0.0000 C   0  0  0  0  0  0  0  0  0  0  0  0
    1.2746    2.1669    0.0000 C   0  0  0  0  0  0  0  0  0  0  0  0
    0.0000    1.4021    0.0000 N   0  0  0  0  0  0  0  0  0  0  0  0
    3.7814    2.1669    0.0000 C   0  0  0  0  0  0  0  0  0  0  0  0
    3.7814    0.7223    0.0000 C   0  0  0  0  0  0  0  0  0  0  0  0
    3.3565    0.0000    0.0000 C   0  0  0  0  0  0  0  0  0  0  0  0
  2  1  2  0  0  0  0
  1  3  1  0  0  0  0
  4  2  1  0  0  0  0
  3  5  2  0  0  0  0
  3  6  1  0  0  0  0
  7  4  2  0  0  0  0
  4  8  1  0  0  0  0
  5  7  1  0  0  0  0
  6  9  1  0  0  0  0
  6 10  1  0  0  0  0
 10 11  1  0  0  0  0
M  END
>  <Name>
Benzenamine, 4-(1-methylpropyl)-

>  <IGC50>
3.61

>  <CAS>
30273-11-1

>  <SET>
ws

>  <Species>
Tetrahymena pyriformis

>  <Test duration>
48h

$$$$

  Mrv1808 07152009203D          

 11 11  0  0  0  0            999 V2000
    4.2968   -0.3318   -0.0018 Br  0  0  0  0  0  0  0  0  0  0  0  0
    2.4187   -0.1205    0.0000 C   0  0  0  0  0  0  0  0  0  0  0  0
    1.8607    1.1578   -0.0002 C   0  0  0  0  0  0  0  0  0  0  0  0
    1.5906   -1.2429    0.0007 C   0  0  0  0  0  0  0  0  0  0  0  0
    0.4746    1.3139    0.0006 C   0  0  0  0  0  0  0  0  0  0  0  0
    0.2045   -1.0870    0.0012 C   0  0  0  0  0  0  0  0  0  0  0  0
   -0.3535    0.1914    0.0011 C   0  0  0  0  0  0  0  0  0  0  0  0
   -1.7988    0.3537    0.0006 C   0  0  0  0  0  0  0  0  0  0  0  0
   -2.4407   -0.8545    0.0001 O   0  0  0  0  0  0  0  0  0  0  0  0
   -2.3807    1.4466   -0.0005 O   0  0  0  0  0  0  0  0  0  0  0  0
   -3.8721   -0.8267   -0.0018 C   0  0  0  0  0  0  0  0  0  0  0  0
  1  2  1  0  0  0  0
  3  2  2  0  0  0  0
  4  2  1  0  0  0  0
  5  3  1  0  0  0  0
  6  4  2  0  0  0  0
  7  5  2  0  0  0  0
  7  6  1  0  0  0  0
  7  8  1  0  0  0  0
  9  8  1  0  0  0  0
 10  8  2  0  0  0  0
  9 11  1  0  0  0  0
M  END
>  <Name>
methyl 4-bromobenzoate

>  <IGC50>
3.6

>  <CAS>
619-42-1

>  <SET>
ws

>  <Species>
Tetrahymena pyriformis

>  <Test duration>
48h

$$$$

  Mrv1808 07152009202D          

  9  9  0  0  0  0            999 V2000
    0.0000    0.0000    0.0000 C   0  0  0  0  0  0  0  0  0  0  0  0
    0.4183    0.7111    0.0000 O   0  0  0  0  0  0  0  0  0  0  0  0
    1.2548    0.7111    0.0000 C   0  0  0  0  0  0  0  0  0  0  0  0
    1.6731    1.4222    0.0000 C   0  0  0  0  0  0  0  0  0  0  0  0
    1.6731    0.0000    0.0000 C   0  0  0  0  0  0  0  0  0  0  0  0
    2.5097    1.4222    0.0000 C   0  0  0  0  0  0  0  0  0  0  0  0
    2.5097    0.0000    0.0000 C   0  0  0  0  0  0  0  0  0  0  0  0
    2.9280    0.7111    0.0000 C   0  0  0  0  0  0  0  0  0  0  0  0
    3.7646    0.7111    0.0000 Cl  0  0  0  0  0  0  0  0  0  0  0  0
  1  2  1  0  0  0  0
  2  3  1  0  0  0  0
  4  3  2  0  0  0  0
  3  5  1  0  0  0  0
  6  4  1  0  0  0  0
  5  7  2  0  0  0  0
  8  6  2  0  0  0  0
  7  8  1  0  0  0  0
  8  9  1  0  0  0  0
M  END
>  <Name>
Anisole, p-chloro- (8CI)

>  <IGC50>
3.6

>  <CAS>
623-12-1

>  <SET>
ws

>  <Species>
Tetrahymena pyriformis

>  <Test duration>
48h

$$$$

  Mrv1808 07152009203D          

 11 11  0  0  0  0            999 V2000
    1.6775    2.1043    0.0001 N   0  0  0  0  0  0  0  0  0  0  0  0
    0.8981    0.9476    0.0001 C   0  0  0  0  0  0  0  0  0  0  0  0
    1.4973   -0.3273    0.0000 C   0  0  0  0  0  0  0  0  0  0  0  0
   -0.5049    1.0431    0.0001 C   0  0  0  0  0  0  0  0  0  0  0  0
    0.7134   -1.4745   -0.0001 C   0  0  0  0  0  0  0  0  0  0  0  0
    3.1761   -0.4812    0.0000 Cl  0  0  0  0  0  0  0  0  0  0  0  0
   -1.2795   -0.1166    0.0000 C   0  0  0  0  0  0  0  0  0  0  0  0
   -0.6720   -1.3778   -0.0001 C   0  0  0  0  0  0  0  0  0  0  0  0
   -2.7751   -0.0098    0.0000 N   0  3  0  0  0  0  0  0  0  0  0  0
   -3.4488   -1.0209    0.0003 O   0  0  0  0  0  0  0  0  0  0  0  0
   -3.2969    1.0886   -0.0003 O   0  5  0  0  0  0  0  0  0  0  0  0
  1  2  1  0  0  0  0
  2  3  1  0  0  0  0
  2  4  2  0  0  0  0
  3  5  2  0  0  0  0
  3  6  1  0  0  0  0
  7  4  1  0  0  0  0
  5  8  1  0  0  0  0
  8  7  2  0  0  0  0
  7  9  1  0  0  0  0
  9 10  2  0  0  0  0
  9 11  1  0  0  0  0
M  CHG  2   9   1  11  -1
M  END
>  <Name>
Benzenamine, 2-chloro-5-nitro-

>  <IGC50>
3.6

>  <CAS>
6283-25-6

>  <SET>
ws

>  <Species>
Tetrahymena pyriformis

>  <Test duration>
48h

$$$$

  Mrv1808 07152009202D          

  9  9  0  0  0  0            999 V2000
    2.1276    0.7382    0.0000 C   0  0  0  0  0  0  0  0  0  0  0  0
    1.3026    0.7382    0.0000 C   0  0  0  0  0  0  0  0  0  0  0  0
    2.5618    1.4329    0.0000 C   0  0  0  0  0  0  0  0  0  0  0  0
    2.5618    0.0000    0.0000 Br  0  0  0  0  0  0  0  0  0  0  0  0
    0.8684    1.4329    0.0000 C   0  0  0  0  0  0  0  0  0  0  0  0
    2.1276    2.2144    0.0000 C   0  0  0  0  0  0  0  0  0  0  0  0
    3.4301    1.4329    0.0000 O   0  0  0  0  0  0  0  0  0  0  0  0
    1.3026    2.2144    0.0000 C   0  0  0  0  0  0  0  0  0  0  0  0
    0.0000    1.4329    0.0000 C   0  0  0  0  0  0  0  0  0  0  0  0
  2  1  2  0  0  0  0
  1  3  1  0  0  0  0
  1  4  1  0  0  0  0
  5  2  1  0  0  0  0
  3  6  2  0  0  0  0
  3  7  1  0  0  0  0
  8  5  2  0  0  0  0
  5  9  1  0  0  0  0
  6  8  1  0  0  0  0
M  END
>  <Name>
p-Cresol, 2-bromo-

>  <IGC50>
3.6

>  <CAS>
6627-55-0

>  <SET>
ws

>  <Species>
Tetrahymena pyriformis

>  <Test duration>
48h

$$$$

  Mrv1808 07152009202D          

 11 10  0  0  0  0            999 V2000
    0.0000    0.8366    0.0000 C   0  0  0  0  0  0  0  0  0  0  0  0
    0.7111    1.2549    0.0000 C   0  0  0  0  0  0  0  0  0  0  0  0
    1.4640    0.8366    0.0000 C   0  0  0  0  0  0  0  0  0  0  0  0
    2.1751    1.2549    0.0000 C   0  0  0  0  0  0  0  0  0  0  0  0
    2.8862    0.8366    0.0000 C   0  0  0  0  0  0  0  0  0  0  0  0
    3.6392    1.2549    0.0000 C   0  0  0  0  0  0  0  0  0  0  0  0
    4.3084    0.7947    0.0000 C   0  0  0  0  0  0  0  0  0  0  0  0
    5.0614    1.2549    0.0000 C   0  0  0  0  0  0  0  0  0  0  0  0
    5.7724    0.8366    0.0000 C   0  0  0  0  0  0  0  0  0  0  0  0
    6.4835    1.2549    0.0000 O   0  0  0  0  0  0  0  0  0  0  0  0
    5.7724    0.0000    0.0000 O   0  0  0  0  0  0  0  0  0  0  0  0
  1  2  1  0  0  0  0
  2  3  1  0  0  0  0
  3  4  1  0  0  0  0
  4  5  1  0  0  0  0
  5  6  1  0  0  0  0
  7  6  1  0  0  0  0
  8  7  2  0  0  0  0
  8  9  1  0  0  0  0
  9 10  1  0  0  0  0
  9 11  2  0  0  0  0
M  END
>  <Name>
2-Nonenoic acid

>  <IGC50>
3.6

>  <CAS>
3760-11-0

>  <SET>
ws

>  <Species>
Tetrahymena pyriformis

>  <Test duration>
48h

$$$$

  Mrv1808 07152009202D          

 11 10  0  0  0  0            999 V2000
    2.1750    0.0000    0.0000 C   0  0  0  0  0  0  0  0  0  0  0  0
    2.9279    0.4183    0.0000 C   0  0  0  0  0  0  0  0  0  0  0  0
    1.4639    0.4183    0.0000 C   0  0  0  0  0  0  0  0  0  0  0  0
    3.6390    0.0000    0.0000 C   0  0  0  0  0  0  0  0  0  0  0  0
    0.7529    0.0000    0.0000 C   0  0  0  0  0  0  0  0  0  0  0  0
    4.3500    0.4183    0.0000 C   0  0  0  0  0  0  0  0  0  0  0  0
    0.0000    0.4183    0.0000 Br  0  0  0  0  0  0  0  0  0  0  0  0
    5.1029    0.0000    0.0000 O   0  0  0  0  0  0  0  0  0  0  0  0
    4.3500    1.2548    0.0000 O   0  0  0  0  0  0  0  0  0  0  0  0
    5.7721    0.4183    0.0000 C   0  0  0  0  0  0  0  0  0  0  0  0
    6.4832    0.0000    0.0000 C   0  0  0  0  0  0  0  0  0  0  0  0
  1  2  1  0  0  0  0
  1  3  1  0  0  0  0
  2  4  1  0  0  0  0
  3  5  1  0  0  0  0
  4  6  1  0  0  0  0
  5  7  1  0  0  0  0
  6  8  1  0  0  0  0
  6  9  2  0  0  0  0
  8 10  1  0  0  0  0
 10 11  1  0  0  0  0
M  END
>  <Name>
Hexanoic acid, 6-bromo-, ethyl ester

>  <IGC50>
3.594

>  <CAS>
25542-62-5

>  <SET>
ws

>  <Species>
Tetrahymena pyriformis

>  <Test duration>
48h

$$$$

  Mrv1808 07152009202D          

 11 11  0  0  0  0            999 V2000
    3.7163   -1.4308    0.0000 C   0  0  0  0  0  0  0  0  0  0  0  0
    2.8913   -1.4308    0.0000 C   0  0  0  0  0  0  0  0  0  0  0  0
    2.4788   -2.1443    0.0000 C   0  0  0  0  0  0  0  0  0  0  0  0
    2.4788   -0.7135    0.0000 C   0  0  0  0  0  0  0  0  0  0  0  0
    1.6501   -2.1443    0.0000 C   0  0  0  0  0  0  0  0  0  0  0  0
    1.6501   -0.7135    0.0000 C   0  0  0  0  0  0  0  0  0  0  0  0
    2.8913    0.0000    0.0000 C   0  0  0  0  0  0  0  0  0  0  0  0
    1.2375   -1.4308    0.0000 C   0  0  0  0  0  0  0  0  0  0  0  0
    0.4125   -1.4308    0.0000 N   0  3  0  0  0  0  0  0  0  0  0  0
    0.0000   -2.1443    0.0000 O   0  5  0  0  0  0  0  0  0  0  0  0
    0.0000   -0.7135    0.0000 O   0  0  0  0  0  0  0  0  0  0  0  0
  1  2  1  0  0  0  0
  2  3  2  0  0  0  0
  2  4  1  0  0  0  0
  3  5  1  0  0  0  0
  6  4  2  0  0  0  0
  4  7  1  0  0  0  0
  5  8  2  0  0  0  0
  8  6  1  0  0  0  0
  8  9  1  0  0  0  0
  9 10  1  0  0  0  0
  9 11  2  0  0  0  0
M  CHG  2   9   1  10  -1
M  END
>  <Name>
o-Xylene, 4-nitro- (8CI)

>  <IGC50>
3.59

>  <CAS>
99-51-4

>  <SET>
ws

>  <Species>
Tetrahymena pyriformis

>  <Test duration>
48h

$$$$

  Mrv1808 07152009203D          

 13 13  0  0  0  0            999 V2000
    1.7927    0.7112    0.1297 C   0  0  0  0  0  0  0  0  0  0  0  0
    0.4201    0.1300    0.1095 C   0  0  0  0  0  0  0  0  0  0  0  0
    2.7027   -0.3799   -0.0293 O   0  0  0  0  0  0  0  0  0  0  0  0
   -0.6674    0.9007   -0.0054 C   0  0  0  0  0  0  0  0  0  0  0  0
    4.0413   -0.1130   -0.0292 C   0  0  0  0  0  0  0  0  0  0  0  0
   -2.0220    0.3566   -0.0080 C   0  0  0  0  0  0  0  0  0  0  0  0
    4.8793   -1.3471   -0.2048 C   0  0  0  0  0  0  0  0  0  0  0  0
    4.4233    1.0328    0.1060 O   0  0  0  0  0  0  0  0  0  0  0  0
   -3.1149    1.2220   -0.1253 C   0  0  0  0  0  0  0  0  0  0  0  0
   -2.2473   -1.0191    0.1045 C   0  0  0  0  0  0  0  0  0  0  0  0
   -4.4084    0.7145   -0.1294 C   0  0  0  0  0  0  0  0  0  0  0  0
   -3.5420   -1.5215    0.0998 C   0  0  0  0  0  0  0  0  0  0  0  0
   -4.6243   -0.6555   -0.0171 C   0  0  0  0  0  0  0  0  0  0  0  0
  1  2  1  0  0  0  0
  1  3  1  0  0  0  0
  2  4  2  0  0  0  0
  5  3  1  0  0  0  0
  4  6  1  0  0  0  0
  5  7  1  0  0  0  0
  5  8  2  0  0  0  0
  6  9  1  0  0  0  0
  6 10  2  0  0  0  0
  9 11  2  0  0  0  0
 12 10  1  0  0  0  0
 11 13  1  0  0  0  0
 13 12  2  0  0  0  0
M  END
>  <Name>
2-Propen-1-ol, 3-phenyl-, acetate

>  <IGC50>
3.59

>  <CAS>
103-54-8

>  <SET>
ws

>  <Species>
Tetrahymena pyriformis

>  <Test duration>
48h

$$$$

  Mrv1808 07152009203D          

 11 11  0  0  0  0            999 V2000
    0.1069    0.9681    0.0000 C   0  0  0  0  0  0  0  0  0  0  0  0
   -0.5617   -0.2793    0.0000 C   0  0  0  0  0  0  0  0  0  0  0  0
    1.5154    1.0151   -0.0004 C   0  0  0  0  0  0  0  0  0  0  0  0
   -0.5110    2.1672    0.0001 O   0  0  0  0  0  0  0  0  0  0  0  0
    0.2089   -1.4592    0.0001 C   0  0  0  0  0  0  0  0  0  0  0  0
   -2.0343   -0.3588    0.0000 N   0  3  0  0  0  0  0  0  0  0  0  0
    2.2485   -0.1608   -0.0003 C   0  0  0  0  0  0  0  0  0  0  0  0
    1.5857   -1.4004    0.0000 C   0  0  0  0  0  0  0  0  0  0  0  0
   -2.6118   -1.4222   -0.0001 O   0  0  0  0  0  0  0  0  0  0  0  0
   -2.6640    0.6975    0.0001 O   0  5  0  0  0  0  0  0  0  0  0  0
    3.7321   -0.1046    0.0003 C   0  0  0  0  0  0  0  0  0  0  0  0
  1  2  1  0  0  0  0
  1  3  2  0  0  0  0
  1  4  1  0  0  0  0
  2  5  2  0  0  0  0
  2  6  1  0  0  0  0
  7  3  1  0  0  0  0
  5  8  1  0  0  0  0
  6  9  2  0  0  0  0
  6 10  1  0  0  0  0
  8  7  2  0  0  0  0
  7 11  1  0  0  0  0
M  CHG  2   6   1  10  -1
M  END
>  <Name>
Phenol, 5-methyl-2-nitro-

>  <IGC50>
3.59

>  <CAS>
700-38-9

>  <SET>
ws

>  <Species>
Tetrahymena pyriformis

>  <Test duration>
48h

$$$$

  Mrv1808 07152009202D          

 11 11  0  0  0  0            999 V2000
    1.2376    0.0000    0.0000 O   0  0  0  0  0  0  0  0  0  0  0  0
    1.6501    0.7013    0.0000 C   0  0  0  0  0  0  0  0  0  0  0  0
    1.2376    1.4438    0.0000 C   0  0  0  0  0  0  0  0  0  0  0  0
    2.4751    0.7013    0.0000 C   0  0  0  0  0  0  0  0  0  0  0  0
    0.4125    1.4438    0.0000 C   0  0  0  0  0  0  0  0  0  0  0  0
    1.6501    2.1451    0.0000 C   0  0  0  0  0  0  0  0  0  0  0  0
    2.8876    1.4438    0.0000 C   0  0  0  0  0  0  0  0  0  0  0  0
    0.0000    0.7013    0.0000 N   0  0  0  0  0  0  0  0  0  0  0  0
    0.0000    2.1451    0.0000 O   0  0  0  0  0  0  0  0  0  0  0  0
    2.4751    2.1451    0.0000 C   0  0  0  0  0  0  0  0  0  0  0  0
    2.8876    2.8463    0.0000 Cl  0  0  0  0  0  0  0  0  0  0  0  0
  1  2  1  0  0  0  0
  3  2  2  0  0  0  0
  2  4  1  0  0  0  0
  5  3  1  0  0  0  0
  6  3  1  0  0  0  0
  4  7  2  0  0  0  0
  8  5  1  0  0  0  0
  5  9  2  0  0  0  0
 10  6  2  0  0  0  0
  7 10  1  0  0  0  0
 11 10  1  0  0  0  0
M  END
>  <Name>
Salicylamide,5-chloro- (6CI,7CI,8CI)

>  <IGC50>
3.59

>  <CAS>
7120-43-6

>  <SET>
ws

>  <Species>
Tetrahymena pyriformis

>  <Test duration>
48h

$$$$

  Mrv1808 07152009202D          

  9  9  0  0  0  0            999 V2000
    0.0000    1.6500    0.0000 Br  0  0  0  0  0  0  0  0  0  0  0  0
    0.7013    1.2375    0.0000 C   0  0  0  0  0  0  0  0  0  0  0  0
    0.7013    0.4125    0.0000 C   0  0  0  0  0  0  0  0  0  0  0  0
    1.4025    1.6500    0.0000 C   0  0  0  0  0  0  0  0  0  0  0  0
    1.4025    0.0000    0.0000 C   0  0  0  0  0  0  0  0  0  0  0  0
    2.1450    1.2375    0.0000 C   0  0  0  0  0  0  0  0  0  0  0  0
    2.1450    0.4125    0.0000 C   0  0  0  0  0  0  0  0  0  0  0  0
    2.8463    0.0000    0.0000 C   0  0  0  0  0  0  0  0  0  0  0  0
    3.5476    0.4125    0.0000 O   0  0  0  0  0  0  0  0  0  0  0  0
  1  2  1  0  0  0  0
  3  2  2  0  0  0  0
  2  4  1  0  0  0  0
  5  3  1  0  0  0  0
  4  6  2  0  0  0  0
  7  5  2  0  0  0  0
  6  7  1  0  0  0  0
  7  8  1  0  0  0  0
  8  9  2  0  0  0  0
M  END
>  <Name>
Benzaldehyde, 4-bromo-

>  <IGC50>
3.587

>  <CAS>
1122-91-4

>  <SET>
ws

>  <Species>
Tetrahymena pyriformis

>  <Test duration>
48h

$$$$

  Mrv1808 07152009202D          

  9  8  0  0  0  0            999 V2000
    0.0000   -0.4118    0.0000 C   0  0  0  0  0  0  0  0  0  0  0  0
    0.7149    0.0000    0.0000 C   0  0  0  0  0  0  0  0  0  0  0  0
    1.4298   -0.4118    0.0000 C   0  0  0  0  0  0  0  0  0  0  0  0
    2.1447    0.0000    0.0000 C   0  0  0  0  0  0  0  0  0  0  0  0
    2.8595   -0.4118    0.0000 C   0  0  0  0  0  0  0  0  0  0  0  0
    3.5744    0.0000    0.0000 C   0  0  0  0  0  0  0  0  0  0  0  0
    4.2893   -0.4118    0.0000 C   0  0  0  0  0  0  0  0  0  0  0  0
    5.0042    0.0000    0.0000 C   0  0  0  0  0  0  0  0  0  0  0  0
    5.7191   -0.4118    0.0000 O   0  0  0  0  0  0  0  0  0  0  0  0
  1  2  1  0  0  0  0
  2  3  1  0  0  0  0
  3  4  1  0  0  0  0
  4  5  1  0  0  0  0
  5  6  1  0  0  0  0
  6  7  1  0  0  0  0
  7  8  1  0  0  0  0
  8  9  1  0  0  0  0
M  END
>  <Name>
Octyl alcohol

>  <IGC50>
3.583

>  <CAS>
111-87-5

>  <SET>
ws

>  <Species>
Tetrahymena pyriformis

>  <Test duration>
48h

$$$$

  Mrv1808 07152009202D          

  9  9  0  0  0  0            999 V2000
    0.0000   -1.6499    0.0000 N   0  0  0  0  0  0  0  0  0  0  0  0
    0.7148   -1.2381    0.0000 C   0  0  0  0  0  0  0  0  0  0  0  0
    0.7148   -0.4118    0.0000 C   0  0  0  0  0  0  0  0  0  0  0  0
    1.4297   -1.6499    0.0000 C   0  0  0  0  0  0  0  0  0  0  0  0
    1.4297    0.0000    0.0000 C   0  0  0  0  0  0  0  0  0  0  0  0
    0.0000    0.0000    0.0000 Cl  0  0  0  0  0  0  0  0  0  0  0  0
    2.1445   -1.2381    0.0000 C   0  0  0  0  0  0  0  0  0  0  0  0
    2.1445   -0.4118    0.0000 C   0  0  0  0  0  0  0  0  0  0  0  0
    2.8594   -1.6499    0.0000 Cl  0  0  0  0  0  0  0  0  0  0  0  0
  1  2  1  0  0  0  0
  2  3  2  0  0  0  0
  2  4  1  0  0  0  0
  3  5  1  0  0  0  0
  3  6  1  0  0  0  0
  7  4  2  0  0  0  0
  5  8  2  0  0  0  0
  8  7  1  0  0  0  0
  7  9  1  0  0  0  0
M  END
>  <Name>
Benzenamine, 2,5-dichloro-

>  <IGC50>
3.58

>  <CAS>
95-82-9

>  <SET>
ws

>  <Species>
Tetrahymena pyriformis

>  <Test duration>
48h

$$$$

  Mrv1808 07152009202D          

 13 13  0  0  0  0            999 V2000
    2.4337    0.0000    0.0000 C   0  0  0  0  0  0  0  0  0  0  0  0
    1.6087    0.0000    0.0000 C   0  0  0  0  0  0  0  0  0  0  0  0
    2.8462    0.7013    0.0000 C   0  0  0  0  0  0  0  0  0  0  0  0
    1.1963    0.7013    0.0000 C   0  0  0  0  0  0  0  0  0  0  0  0
    2.4337    1.4437    0.0000 C   0  0  0  0  0  0  0  0  0  0  0  0
    3.6299    0.7013    0.0000 O   0  0  0  0  0  0  0  0  0  0  0  0
    1.6087    1.4437    0.0000 C   0  0  0  0  0  0  0  0  0  0  0  0
    0.3713    0.7013    0.0000 C   0  0  0  0  0  0  0  0  0  0  0  0
    4.0424    1.4025    0.0000 C   0  0  0  0  0  0  0  0  0  0  0  0
    0.0000    1.4437    0.0000 O   0  0  0  0  0  0  0  0  0  0  0  0
    0.0000    0.0000    0.0000 O   0  0  0  0  0  0  0  0  0  0  0  0
    4.9087    1.4025    0.0000 C   0  0  0  0  0  0  0  0  0  0  0  0
    0.4125    2.1450    0.0000 C   0  0  0  0  0  0  0  0  0  0  0  0
  2  1  2  0  0  0  0
  1  3  1  0  0  0  0
  4  2  1  0  0  0  0
  3  5  2  0  0  0  0
  3  6  1  0  0  0  0
  7  4  2  0  0  0  0
  4  8  1  0  0  0  0
  5  7  1  0  0  0  0
  6  9  1  0  0  0  0
  8 10  1  0  0  0  0
  8 11  2  0  0  0  0
 12  9  1  0  0  0  0
 13 10  1  0  0  0  0
M  END
>  <Name>
Benzoic acid, 4-ethoxy-, methyl ester

>  <IGC50>
3.58

>  <CAS>
23676-08-6

>  <SET>
ws

>  <Species>
Tetrahymena pyriformis

>  <Test duration>
48h

$$$$

  Mrv1808 07152009203D          

 12 12  0  0  0  0            999 V2000
   -2.4343    0.2172   -0.0016 C   0  0  0  0  0  0  0  0  0  0  0  0
   -1.0217   -0.2073   -0.0020 C   0  0  0  0  0  0  0  0  0  0  0  0
   -2.8867    1.3476   -0.0053 O   0  0  0  0  0  0  0  0  0  0  0  0
   -3.2990   -0.8455    0.0037 O   0  0  0  0  0  0  0  0  0  0  0  0
   -0.0168    0.6799    0.0006 C   0  0  0  0  0  0  0  0  0  0  0  0
   -4.6859   -0.5870    0.0029 C   0  0  0  0  0  0  0  0  0  0  0  0
    1.3854    0.2749    0.0004 C   0  0  0  0  0  0  0  0  0  0  0  0
    1.7473   -1.0762   -0.0021 C   0  0  0  0  0  0  0  0  0  0  0  0
    2.3853    1.2535    0.0028 C   0  0  0  0  0  0  0  0  0  0  0  0
    3.0865   -1.4435   -0.0023 C   0  0  0  0  0  0  0  0  0  0  0  0
    3.7238    0.8807    0.0026 C   0  0  0  0  0  0  0  0  0  0  0  0
    4.0763   -0.4655    0.0001 C   0  0  0  0  0  0  0  0  0  0  0  0
  1  2  1  0  0  0  0
  1  3  2  0  0  0  0
  1  4  1  0  0  0  0
  2  5  2  0  0  0  0
  4  6  1  0  0  0  0
  5  7  1  0  0  0  0
  7  8  1  0  0  0  0
  7  9  2  0  0  0  0
  8 10  2  0  0  0  0
 11  9  1  0  0  0  0
 10 12  1  0  0  0  0
 12 11  2  0  0  0  0
M  END
>  <Name>
2-Propenoic acid, 3-phenyl-, methyl ester

>  <IGC50>
3.58

>  <CAS>
103-26-4

>  <SET>
ws

>  <Species>
Tetrahymena pyriformis

>  <Test duration>
48h

$$$$

  Mrv1808 07152009202D          

 12 12  0  0  0  0            999 V2000
    1.2386   -2.1469    0.0000 C   0  0  0  0  0  0  0  0  0  0  0  0
    0.4129   -2.1469    0.0000 C   0  0  0  0  0  0  0  0  0  0  0  0
    1.6514   -1.4326    0.0000 C   0  0  0  0  0  0  0  0  0  0  0  0
    0.0000   -1.4326    0.0000 C   0  0  0  0  0  0  0  0  0  0  0  0
    1.2386   -0.7184    0.0000 C   0  0  0  0  0  0  0  0  0  0  0  0
    2.4772   -1.4326    0.0000 C   0  0  0  0  0  0  0  0  0  0  0  0
    0.4129   -0.7184    0.0000 C   0  0  0  0  0  0  0  0  0  0  0  0
    2.8901   -2.1469    0.0000 O   0  0  0  0  0  0  0  0  0  0  0  0
    2.8901   -0.7184    0.0000 C   0  0  0  0  0  0  0  0  0  0  0  0
    3.7158   -0.7184    0.0000 C   0  0  0  0  0  0  0  0  0  0  0  0
    4.1286    0.0000    0.0000 O   0  0  0  0  0  0  0  0  0  0  0  0
    4.1286   -1.4326    0.0000 C   0  0  0  0  0  0  0  0  0  0  0  0
  1  2  2  0  0  0  0
  1  3  1  0  0  0  0
  2  4  1  0  0  0  0
  5  3  2  0  0  0  0
  3  6  1  0  0  0  0
  4  7  2  0  0  0  0
  7  5  1  0  0  0  0
  6  8  2  0  0  0  0
  6  9  1  0  0  0  0
  9 10  1  0  0  0  0
 10 11  2  0  0  0  0
 10 12  1  0  0  0  0
M  END
>  <Name>
1,3-Butanedione, 1-phenyl-

>  <IGC50>
3.57

>  <CAS>
93-91-4

>  <SET>
ws

>  <Species>
Tetrahymena pyriformis

>  <Test duration>
48h

$$$$

  Mrv1808 07152009202D          

 11 11  0  0  0  0            999 V2000
    0.7162   -0.8250    0.0000 C   0  0  0  0  0  0  0  0  0  0  0  0
    0.7162    0.0000    0.0000 O   0  0  0  0  0  0  0  0  0  0  0  0
    1.4322   -1.2441    0.0000 C   0  0  0  0  0  0  0  0  0  0  0  0
    0.0000   -1.2441    0.0000 C   0  0  0  0  0  0  0  0  0  0  0  0
    1.4322   -2.0691    0.0000 C   0  0  0  0  0  0  0  0  0  0  0  0
    2.1385   -0.8250    0.0000 N   0  3  0  0  0  0  0  0  0  0  0  0
    0.0000   -2.0691    0.0000 C   0  0  0  0  0  0  0  0  0  0  0  0
    0.7162   -2.4751    0.0000 C   0  0  0  0  0  0  0  0  0  0  0  0
    2.1385    0.0000    0.0000 O   0  5  0  0  0  0  0  0  0  0  0  0
    2.8513   -1.2441    0.0000 O   0  0  0  0  0  0  0  0  0  0  0  0
    0.7162   -3.3001    0.0000 C   0  0  0  0  0  0  0  0  0  0  0  0
  1  2  1  0  0  0  0
  1  3  2  0  0  0  0
  1  4  1  0  0  0  0
  3  5  1  0  0  0  0
  3  6  1  0  0  0  0
  4  7  2  0  0  0  0
  5  8  2  0  0  0  0
  6  9  1  0  0  0  0
  6 10  2  0  0  0  0
  7  8  1  0  0  0  0
  8 11  1  0  0  0  0
M  CHG  2   6   1   9  -1
M  END
>  <Name>
Phenol, 4-methyl-2-nitro-

>  <IGC50>
3.57

>  <CAS>
119-33-5

>  <SET>
ws

>  <Species>
Tetrahymena pyriformis

>  <Test duration>
48h

$$$$

  Mrv1808 07152009202D          

 12 12  0  0  0  0            999 V2000
    3.2950   -1.4276    0.0000 C   0  0  0  0  0  0  0  0  0  0  0  0
    2.4700   -1.4276    0.0000 C   0  0  0  0  0  0  0  0  0  0  0  0
    3.7049   -2.1390    0.0000 O   0  0  0  0  0  0  0  0  0  0  0  0
    3.7049   -0.7113    0.0000 O   0  0  0  0  0  0  0  0  0  0  0  0
    2.0600   -2.1390    0.0000 C   0  0  0  0  0  0  0  0  0  0  0  0
    2.0600   -0.7113    0.0000 C   0  0  0  0  0  0  0  0  0  0  0  0
    4.5299   -0.7113    0.0000 C   0  0  0  0  0  0  0  0  0  0  0  0
    1.2350   -2.1390    0.0000 C   0  0  0  0  0  0  0  0  0  0  0  0
    1.2350   -0.7113    0.0000 C   0  0  0  0  0  0  0  0  0  0  0  0
    4.9400    0.0000    0.0000 C   0  0  0  0  0  0  0  0  0  0  0  0
    0.8250   -1.4276    0.0000 C   0  0  0  0  0  0  0  0  0  0  0  0
    0.0000   -1.4276    0.0000 O   0  0  0  0  0  0  0  0  0  0  0  0
  1  2  1  0  0  0  0
  1  3  2  0  0  0  0
  1  4  1  0  0  0  0
  2  5  2  0  0  0  0
  2  6  1  0  0  0  0
  4  7  1  0  0  0  0
  5  8  1  0  0  0  0
  9  6  2  0  0  0  0
  7 10  1  0  0  0  0
  8 11  2  0  0  0  0
 11  9  1  0  0  0  0
 11 12  1  0  0  0  0
M  END
>  <Name>
ethyl 4-hydroxybenzoate

>  <IGC50>
3.57

>  <CAS>
120-47-8

>  <SET>
ws

>  <Species>
Tetrahymena pyriformis

>  <Test duration>
48h

$$$$

  Mrv1808 07152009202D          

 11 11  0  0  0  0            999 V2000
    1.9114    0.0001    0.0000 C   0  0  0  0  0  0  0  0  0  0  0  0
    1.0697   -0.0006    0.0000 C   0  0  0  0  0  0  0  0  0  0  0  0
    2.5958    0.0008    0.0000 N   0  0  0  0  0  0  0  0  0  0  0  0
    0.6607   -0.7169    0.0000 C   0  0  0  0  0  0  0  0  0  0  0  0
    0.6609    0.7160    0.0000 C   0  0  0  0  0  0  0  0  0  0  0  0
   -0.1597   -0.7161    0.0000 C   0  0  0  0  0  0  0  0  0  0  0  0
   -0.1594    0.7155    0.0000 C   0  0  0  0  0  0  0  0  0  0  0  0
   -0.5726   -0.0002    0.0000 C   0  0  0  0  0  0  0  0  0  0  0  0
   -1.4595    0.0002    0.0000 N   0  3  0  0  0  0  0  0  0  0  0  0
   -1.8101   -0.6251    0.0000 O   0  0  0  0  0  0  0  0  0  0  0  0
   -1.8092    0.6260    0.0000 O   0  5  0  0  0  0  0  0  0  0  0  0
  1  2  1  0  0  0  0
  1  3  3  0  0  0  0
  2  4  1  0  0  0  0
  2  5  2  0  0  0  0
  4  6  2  0  0  0  0
  7  5  1  0  0  0  0
  6  8  1  0  0  0  0
  8  7  2  0  0  0  0
  8  9  1  0  0  0  0
  9 10  2  0  0  0  0
  9 11  1  0  0  0  0
M  CHG  2   9   1  11  -1
M  END
>  <Name>
Benzonitrile, 4-nitro-

>  <IGC50>
3.57

>  <CAS>
619-72-7

>  <SET>
ws

>  <Species>
Tetrahymena pyriformis

>  <Test duration>
48h

$$$$

  Mrv1808 07152009202D          

  4  3  0  0  0  0            999 V2000
    0.0000    0.0000    0.0000 Br  0  0  0  0  0  0  0  0  0  0  0  0
    0.7147   -0.4121    0.0000 C   0  0  0  0  0  0  0  0  0  0  0  0
    1.4315    0.0000    0.0000 C   0  0  0  0  0  0  0  0  0  0  0  0
    2.1462   -0.4121    0.0000 C   0  0  0  0  0  0  0  0  0  0  0  0
  1  2  1  0  0  0  0
  2  3  1  0  0  0  0
  3  4  2  0  0  0  0
M  END
>  <Name>
1-Propene, 3-bromo-

>  <IGC50>
3.569

>  <CAS>
106-95-6

>  <SET>
ws

>  <Species>
Tetrahymena pyriformis

>  <Test duration>
48h

$$$$

  Mrv1808 07152009202D          

  9  9  0  0  0  0            999 V2000
    2.8594   -1.6499    0.0000 Cl  0  0  0  0  0  0  0  0  0  0  0  0
    2.1445   -1.2381    0.0000 C   0  0  0  0  0  0  0  0  0  0  0  0
    1.4297   -1.6499    0.0000 C   0  0  0  0  0  0  0  0  0  0  0  0
    2.1445   -0.4118    0.0000 C   0  0  0  0  0  0  0  0  0  0  0  0
    0.7148   -1.2381    0.0000 C   0  0  0  0  0  0  0  0  0  0  0  0
    1.4297    0.0000    0.0000 C   0  0  0  0  0  0  0  0  0  0  0  0
    2.8594    0.0000    0.0000 N   0  0  0  0  0  0  0  0  0  0  0  0
    0.0000   -1.6499    0.0000 Cl  0  0  0  0  0  0  0  0  0  0  0  0
    0.7148   -0.4118    0.0000 C   0  0  0  0  0  0  0  0  0  0  0  0
  1  2  1  0  0  0  0
  2  3  2  0  0  0  0
  2  4  1  0  0  0  0
  3  5  1  0  0  0  0
  6  4  2  0  0  0  0
  4  7  1  0  0  0  0
  5  8  1  0  0  0  0
  5  9  2  0  0  0  0
  9  6  1  0  0  0  0
M  END
>  <Name>
Benzenamine, 2,4-dichloro-

>  <IGC50>
3.56

>  <CAS>
554-00-7

>  <SET>
ws

>  <Species>
Tetrahymena pyriformis

>  <Test duration>
48h

$$$$

  Mrv1808 07152009203D          

 12 12  0  0  0  0            999 V2000
    3.0607    0.9785    2.3276 C   0  0  0  0  0  0  0  0  0  0  0  0
    3.6446    1.5775    3.5907 C   0  0  0  0  0  0  0  0  0  0  0  0
    3.1965    1.8447    1.0863 C   0  0  0  0  0  0  0  0  0  0  0  0
    4.5779    2.3590    3.5814 O   0  0  0  0  0  0  0  0  0  0  0  0
    3.0296    1.1274    4.8774 C   0  0  0  0  0  0  0  0  0  0  0  0
    2.1576    2.9572    1.0471 C   0  0  0  0  0  0  0  0  0  0  0  0
    1.6703    0.8144    4.9421 C   0  0  0  0  0  0  0  0  0  0  0  0
    3.8122    1.0356    6.0302 C   0  0  0  0  0  0  0  0  0  0  0  0
    0.7489    2.4121    0.9595 C   0  0  0  0  0  0  0  0  0  0  0  0
    1.0991    0.4138    6.1433 C   0  0  0  0  0  0  0  0  0  0  0  0
    3.2375    0.6304    7.2303 C   0  0  0  0  0  0  0  0  0  0  0  0
    1.8834    0.3205    7.2891 C   0  0  0  0  0  0  0  0  0  0  0  0
  1  2  1  0  0  0  0
  1  3  1  0  0  0  0
  2  4  2  0  0  0  0
  2  5  1  0  0  0  0
  3  6  1  0  0  0  0
  7  5  2  0  0  0  0
  5  8  1  0  0  0  0
  6  9  1  0  0  0  0
 10  7  1  0  0  0  0
  8 11  2  0  0  0  0
 12 10  2  0  0  0  0
 11 12  1  0  0  0  0
M  END
>  <Name>
1-Pentanone, 1-phenyl-

>  <IGC50>
3.56

>  <CAS>
1009-14-9

>  <SET>
ws

>  <Species>
Tetrahymena pyriformis

>  <Test duration>
48h

$$$$

  Mrv1808 07152009202D          

 11 11  0  0  0  0            999 V2000
    2.8869    0.0000    0.0000 C   0  0  0  0  0  0  0  0  0  0  0  0
    2.4741   -0.7131    0.0000 C   0  0  0  0  0  0  0  0  0  0  0  0
    2.8869   -1.4290    0.0000 C   0  0  0  0  0  0  0  0  0  0  0  0
    1.6484   -0.7131    0.0000 C   0  0  0  0  0  0  0  0  0  0  0  0
    2.4741   -2.1421    0.0000 C   0  0  0  0  0  0  0  0  0  0  0  0
    1.2385   -1.4290    0.0000 C   0  0  0  0  0  0  0  0  0  0  0  0
    1.2385    0.0000    0.0000 C   0  0  0  0  0  0  0  0  0  0  0  0
    1.6484   -2.1421    0.0000 C   0  0  0  0  0  0  0  0  0  0  0  0
    0.4128   -1.4290    0.0000 N   0  3  0  0  0  0  0  0  0  0  0  0
    0.0000   -2.1421    0.0000 O   0  5  0  0  0  0  0  0  0  0  0  0
    0.0000   -0.7131    0.0000 O   0  0  0  0  0  0  0  0  0  0  0  0
  1  2  1  0  0  0  0
  2  3  2  0  0  0  0
  2  4  1  0  0  0  0
  3  5  1  0  0  0  0
  6  4  2  0  0  0  0
  4  7  1  0  0  0  0
  5  8  2  0  0  0  0
  8  6  1  0  0  0  0
  6  9  1  0  0  0  0
  9 10  1  0  0  0  0
  9 11  2  0  0  0  0
M  CHG  2   9   1  10  -1
M  END
>  <Name>
Benzene, 1,2-dimethyl-3-nitro-

>  <IGC50>
3.56

>  <CAS>
83-41-0

>  <SET>
ws

>  <Species>
Tetrahymena pyriformis

>  <Test duration>
48h

$$$$

  Mrv1808 07152009202D          

  8  8  0  0  0  0            999 V2000
    1.2375    1.4437    0.0000 C   0  0  0  0  0  0  0  0  0  0  0  0
    0.8250    0.7012    0.0000 C   0  0  0  0  0  0  0  0  0  0  0  0
    2.0625    1.4437    0.0000 C   0  0  0  0  0  0  0  0  0  0  0  0
    1.2375    0.0000    0.0000 C   0  0  0  0  0  0  0  0  0  0  0  0
    0.0000    0.7012    0.0000 Cl  0  0  0  0  0  0  0  0  0  0  0  0
    2.4336    0.7012    0.0000 C   0  0  0  0  0  0  0  0  0  0  0  0
    2.0212    0.0000    0.0000 C   0  0  0  0  0  0  0  0  0  0  0  0
    3.2586    0.7012    0.0000 Br  0  0  0  0  0  0  0  0  0  0  0  0
  1  2  2  0  0  0  0
  3  1  1  0  0  0  0
  2  4  1  0  0  0  0
  2  5  1  0  0  0  0
  6  3  2  0  0  0  0
  4  7  2  0  0  0  0
  7  6  1  0  0  0  0
  6  8  1  0  0  0  0
M  END
>  <Name>
Benzene, 1-bromo-4-chloro-

>  <IGC50>
3.56

>  <CAS>
106-39-8

>  <SET>
ws

>  <Species>
Tetrahymena pyriformis

>  <Test duration>
48h

$$$$

  Mrv1808 07152009202D          

  6  5  0  0  0  0            999 V2000
    2.1429   -0.8250    0.0000 C   0  0  0  0  0  0  0  0  0  0  0  0
    1.4271   -1.2407    0.0000 O   0  0  0  0  0  0  0  0  0  0  0  0
    0.7157   -0.8250    0.0000 C   0  0  0  0  0  0  0  0  0  0  0  0
    0.7157    0.0000    0.0000 O   0  0  0  0  0  0  0  0  0  0  0  0
    0.0000   -1.2407    0.0000 C   0  0  0  0  0  0  0  0  0  0  0  0
    0.0000   -2.0657    0.0000 C   0  0  0  0  0  0  0  0  0  0  0  0
  1  2  1  0  0  0  0
  2  3  1  0  0  0  0
  4  3  2  0  0  0  0
  3  5  1  0  0  0  0
  5  6  2  0  0  0  0
M  END
>  <Name>
2-Propenoic acid, methyl ester

>  <IGC50>
3.55

>  <CAS>
96-33-3

>  <SET>
ws

>  <Species>
Tetrahymena pyriformis

>  <Test duration>
48h

$$$$

  Mrv1808 07152009202D          

 12 12  0  0  0  0            999 V2000
    1.6514   -0.7184    0.0000 C   0  0  0  0  0  0  0  0  0  0  0  0
    1.2386    0.0000    0.0000 O   0  0  0  0  0  0  0  0  0  0  0  0
    2.4772   -0.7184    0.0000 C   0  0  0  0  0  0  0  0  0  0  0  0
    1.2386   -1.4326    0.0000 C   0  0  0  0  0  0  0  0  0  0  0  0
    2.8901   -1.4326    0.0000 C   0  0  0  0  0  0  0  0  0  0  0  0
    1.6514   -2.1469    0.0000 C   0  0  0  0  0  0  0  0  0  0  0  0
    0.4129   -1.4326    0.0000 C   0  0  0  0  0  0  0  0  0  0  0  0
    3.7158   -1.4326    0.0000 O   0  0  0  0  0  0  0  0  0  0  0  0
    2.4772   -2.1469    0.0000 C   0  0  0  0  0  0  0  0  0  0  0  0
    0.0000   -2.1469    0.0000 O   0  0  0  0  0  0  0  0  0  0  0  0
    0.0000   -0.7184    0.0000 C   0  0  0  0  0  0  0  0  0  0  0  0
    4.1286   -2.1469    0.0000 C   0  0  0  0  0  0  0  0  0  0  0  0
  1  2  1  0  0  0  0
  1  3  2  0  0  0  0
  1  4  1  0  0  0  0
  3  5  1  0  0  0  0
  6  4  2  0  0  0  0
  4  7  1  0  0  0  0
  5  8  1  0  0  0  0
  5  9  2  0  0  0  0
  9  6  1  0  0  0  0
  7 10  2  0  0  0  0
  7 11  1  0  0  0  0
  8 12  1  0  0  0  0
M  END
>  <Name>
Ethanone, 1-(2-hydroxy-4-methoxyphenyl)- (9CI)

>  <IGC50>
3.55

>  <CAS>
552-41-0

>  <SET>
ws

>  <Species>
Tetrahymena pyriformis

>  <Test duration>
48h

$$$$

  Mrv1808 07152009203D          

 11 11  0  0  0  0            999 V2000
   -1.7320   -0.2262    0.0004 C   0  0  0  0  0  0  0  0  0  0  0  0
   -0.9407   -1.3895   -0.0002 C   0  0  0  0  0  0  0  0  0  0  0  0
   -1.1321    1.0396    0.0003 C   0  0  0  0  0  0  0  0  0  0  0  0
   -3.0823   -0.4673    0.0012 O   0  0  0  0  0  0  0  0  0  0  0  0
    0.4380   -1.2773   -0.0002 C   0  0  0  0  0  0  0  0  0  0  0  0
    0.2515    1.1398    0.0001 C   0  0  0  0  0  0  0  0  0  0  0  0
   -3.9501    0.6421   -0.0012 C   0  0  0  0  0  0  0  0  0  0  0  0
    1.0466   -0.0122    0.0000 C   0  0  0  0  0  0  0  0  0  0  0  0
    2.5339    0.1032   -0.0001 N   0  3  0  0  0  0  0  0  0  0  0  0
    3.2144   -0.9043   -0.0003 O   0  0  0  0  0  0  0  0  0  0  0  0
    3.0487    1.2052    0.0002 O   0  5  0  0  0  0  0  0  0  0  0  0
  1  2  1  0  0  0  0
  1  3  2  0  0  0  0
  1  4  1  0  0  0  0
  2  5  2  0  0  0  0
  6  3  1  0  0  0  0
  4  7  1  0  0  0  0
  5  8  1  0  0  0  0
  8  6  2  0  0  0  0
  8  9  1  0  0  0  0
  9 10  2  0  0  0  0
  9 11  1  0  0  0  0
M  CHG  2   9   1  11  -1
M  END
>  <Name>
Benzene, 1-methoxy-4-nitro-

>  <IGC50>
3.54

>  <CAS>
100-17-4

>  <SET>
ws

>  <Species>
Tetrahymena pyriformis

>  <Test duration>
48h

$$$$

  Mrv1808 07152009202D          

  9  9  0  0  0  0            999 V2000
    1.4640    2.5097    0.0000 O   0  0  0  0  0  0  0  0  0  0  0  0
    1.4640    1.6731    0.0000 C   0  0  0  0  0  0  0  0  0  0  0  0
    2.1750    1.2548    0.0000 C   0  0  0  0  0  0  0  0  0  0  0  0
    0.7529    1.2548    0.0000 C   0  0  0  0  0  0  0  0  0  0  0  0
    2.9279    1.6731    0.0000 Cl  0  0  0  0  0  0  0  0  0  0  0  0
    2.1750    0.4183    0.0000 C   0  0  0  0  0  0  0  0  0  0  0  0
    0.7529    0.4183    0.0000 C   0  0  0  0  0  0  0  0  0  0  0  0
    1.4640    0.0000    0.0000 C   0  0  0  0  0  0  0  0  0  0  0  0
    0.0000    0.0000    0.0000 C   0  0  0  0  0  0  0  0  0  0  0  0
  1  2  1  0  0  0  0
  2  3  2  0  0  0  0
  4  2  1  0  0  0  0
  3  5  1  0  0  0  0
  3  6  1  0  0  0  0
  7  4  2  0  0  0  0
  6  8  2  0  0  0  0
  8  7  1  0  0  0  0
  7  9  1  0  0  0  0
M  END
>  <Name>
Phenol, 2-chloro-5-methyl-

>  <IGC50>
3.54

>  <CAS>
615-74-7

>  <SET>
ws

>  <Species>
Tetrahymena pyriformis

>  <Test duration>
48h

$$$$

  Mrv1808 07152009203D          

 10  9  0  0  0  0            999 V2000
    4.5422   -3.6557   -5.4463 O   0  0  0  0  0  0  0  0  0  0  0  0
    3.7604   -4.0154   -6.5768 C   0  0  0  0  0  0  0  0  0  0  0  0
    4.0840   -4.1001   -4.2400 C   0  0  0  0  0  0  0  0  0  0  0  0
    4.4111   -3.4420   -7.8277 C   0  0  0  0  0  0  0  0  0  0  0  0
    3.0809   -4.7675   -4.0433 O   0  0  0  0  0  0  0  0  0  0  0  0
    5.0171   -3.6303   -3.1950 C   0  0  0  0  0  0  0  0  0  0  0  0
    3.6282   -3.8050   -9.0876 C   0  0  0  0  0  0  0  0  0  0  0  0
    4.7932   -3.9329   -1.9131 C   0  0  0  0  0  0  0  0  0  0  0  0
    4.3110   -3.2615  -10.3424 C   0  0  0  0  0  0  0  0  0  0  0  0
    3.5526   -3.6497  -11.6017 C   0  0  0  0  0  0  0  0  0  0  0  0
  1  2  1  0  0  0  0
  1  3  1  0  0  0  0
  4  2  1  0  0  0  0
  5  3  2  0  0  0  0
  3  6  1  0  0  0  0
  7  4  1  0  0  0  0
  6  8  2  0  0  0  0
  7  9  1  0  0  0  0
  9 10  1  0  0  0  0
M  END
>  <Name>
2-Propenoic acid, pentyl ester

>  <IGC50>
3.54

>  <CAS>
2998-23-4

>  <SET>
ws

>  <Species>
Tetrahymena pyriformis

>  <Test duration>
48h

$$$$

  Mrv1808 07152009202D          

 10 10  0  0  0  0            999 V2000
    2.4750    0.7144    0.0000 S   0  0  0  0  0  0  0  0  0  0  0  0
    2.8875    0.0000    0.0000 C   0  0  0  0  0  0  0  0  0  0  0  0
    1.6500    0.7144    0.0000 C   0  0  0  0  0  0  0  0  0  0  0  0
    3.7125    0.0000    0.0000 C   0  0  0  0  0  0  0  0  0  0  0  0
    1.2375    0.0000    0.0000 C   0  0  0  0  0  0  0  0  0  0  0  0
    1.2375    1.4290    0.0000 C   0  0  0  0  0  0  0  0  0  0  0  0
    4.5375    0.0000    0.0000 C   0  0  0  0  0  0  0  0  0  0  0  0
    0.4125    0.0000    0.0000 C   0  0  0  0  0  0  0  0  0  0  0  0
    0.4125    1.4290    0.0000 C   0  0  0  0  0  0  0  0  0  0  0  0
    0.0000    0.7144    0.0000 C   0  0  0  0  0  0  0  0  0  0  0  0
  1  2  1  0  0  0  0
  1  3  1  0  0  0  0
  2  4  1  0  0  0  0
  3  5  1  0  0  0  0
  3  6  2  0  0  0  0
  4  7  3  0  0  0  0
  5  8  2  0  0  0  0
  9  6  1  0  0  0  0
  8 10  1  0  0  0  0
 10  9  2  0  0  0  0
M  END
>  <Name>
 Sulfide, phenyl 2-propynyl (6CI,7CI,8CI)

>  <IGC50>
3.54

>  <CAS>
5651-88-7

>  <SET>
ws

>  <Species>
Tetrahymena pyriformis

>  <Test duration>
48h

$$$$

  Mrv1808 07152009202D          

  8  8  0  0  0  0            999 V2000
    0.0000   -0.7161    0.0000 O   0  0  0  0  0  0  0  0  0  0  0  0
    0.8250   -0.7161    0.0000 C   0  0  0  0  0  0  0  0  0  0  0  0
    1.2375    0.0000    0.0000 C   0  0  0  0  0  0  0  0  0  0  0  0
    1.2375   -1.4289    0.0000 C   0  0  0  0  0  0  0  0  0  0  0  0
    2.0625    0.0000    0.0000 C   0  0  0  0  0  0  0  0  0  0  0  0
    2.0625   -1.4289    0.0000 C   0  0  0  0  0  0  0  0  0  0  0  0
    2.4750   -0.7161    0.0000 C   0  0  0  0  0  0  0  0  0  0  0  0
    3.3001   -0.7161    0.0000 Cl  0  0  0  0  0  0  0  0  0  0  0  0
  1  2  1  0  0  0  0
  2  3  2  0  0  0  0
  2  4  1  0  0  0  0
  3  5  1  0  0  0  0
  6  4  2  0  0  0  0
  5  7  2  0  0  0  0
  7  6  1  0  0  0  0
  7  8  1  0  0  0  0
M  END
>  <Name>
Phenol, 4-chloro-

>  <IGC50>
3.54

>  <CAS>
106-48-9

>  <SET>
ws

>  <Species>
Tetrahymena pyriformis

>  <Test duration>
48h

$$$$

  Mrv1808 07152009202D          

 11 10  0  0  0  0            999 V2000
    1.4221   -0.8403    0.0000 C   0  0  0  0  0  0  0  0  0  0  0  0
    2.1525   -1.2476    0.0000 C   0  0  0  0  0  0  0  0  0  0  0  0
    0.7110   -1.2476    0.0000 O   0  0  0  0  0  0  0  0  0  0  0  0
    1.4221    0.0000    0.0000 O   0  0  0  0  0  0  0  0  0  0  0  0
    2.8635   -0.8403    0.0000 C   0  0  0  0  0  0  0  0  0  0  0  0
    0.0000   -0.8403    0.0000 C   0  0  0  0  0  0  0  0  0  0  0  0
    3.5810   -1.2476    0.0000 C   0  0  0  0  0  0  0  0  0  0  0  0
    4.3114   -0.8403    0.0000 C   0  0  0  0  0  0  0  0  0  0  0  0
    5.0224   -1.2476    0.0000 C   0  0  0  0  0  0  0  0  0  0  0  0
    5.7334   -0.8403    0.0000 C   0  0  0  0  0  0  0  0  0  0  0  0
    6.4639   -1.2476    0.0000 C   0  0  0  0  0  0  0  0  0  0  0  0
  1  2  1  0  0  0  0
  1  3  1  0  0  0  0
  1  4  2  0  0  0  0
  2  5  1  0  0  0  0
  3  6  1  0  0  0  0
  5  7  1  0  0  0  0
  7  8  1  0  0  0  0
  8  9  1  0  0  0  0
  9 10  1  0  0  0  0
 10 11  1  0  0  0  0
M  END
>  <Name>
Octanoic acid, methyl ester

>  <IGC50>
3.536

>  <CAS>
111-11-5

>  <SET>
ws

>  <Species>
Tetrahymena pyriformis

>  <Test duration>
48h

$$$$

  Mrv1808 07152009202D          

  8  8  0  0  0  0            999 V2000
    0.0000   -0.7161    0.0000 Cl  0  0  0  0  0  0  0  0  0  0  0  0
    0.8250   -0.7161    0.0000 C   0  0  0  0  0  0  0  0  0  0  0  0
    1.2375    0.0000    0.0000 C   0  0  0  0  0  0  0  0  0  0  0  0
    1.2375   -1.4289    0.0000 C   0  0  0  0  0  0  0  0  0  0  0  0
    2.0625    0.0000    0.0000 C   0  0  0  0  0  0  0  0  0  0  0  0
    2.0625   -1.4289    0.0000 C   0  0  0  0  0  0  0  0  0  0  0  0
    2.4750   -0.7161    0.0000 C   0  0  0  0  0  0  0  0  0  0  0  0
    3.3001   -0.7161    0.0000 Cl  0  0  0  0  0  0  0  0  0  0  0  0
  1  2  1  0  0  0  0
  2  3  2  0  0  0  0
  2  4  1  0  0  0  0
  3  5  1  0  0  0  0
  6  4  2  0  0  0  0
  5  7  2  0  0  0  0
  7  6  1  0  0  0  0
  7  8  1  0  0  0  0
M  END
>  <Name>
Benzene, 1,4-dichloro-

>  <IGC50>
3.53

>  <CAS>
106-46-7

>  <SET>
ws

>  <Species>
Tetrahymena pyriformis

>  <Test duration>
48h

$$$$

  Mrv1808 07152009202D          

 13 14  0  0  0  0            999 V2000
    4.1828    0.7111    0.0000 C   0  0  0  0  0  0  0  0  0  0  0  0
    5.0193    0.7111    0.0000 F   0  0  0  0  0  0  0  0  0  0  0  0
    3.7645    0.0000    0.0000 C   0  0  0  0  0  0  0  0  0  0  0  0
    3.7645    1.4222    0.0000 C   0  0  0  0  0  0  0  0  0  0  0  0
    2.9280    0.0000    0.0000 C   0  0  0  0  0  0  0  0  0  0  0  0
    2.9280    1.4222    0.0000 C   0  0  0  0  0  0  0  0  0  0  0  0
    2.5097    0.7111    0.0000 C   0  0  0  0  0  0  0  0  0  0  0  0
    1.6731    0.7111    0.0000 C   0  0  0  0  0  0  0  0  0  0  0  0
    1.2549    1.4222    0.0000 C   0  0  0  0  0  0  0  0  0  0  0  0
    1.2549    0.0000    0.0000 C   0  0  0  0  0  0  0  0  0  0  0  0
    0.4183    1.4222    0.0000 C   0  0  0  0  0  0  0  0  0  0  0  0
    0.4183    0.0000    0.0000 C   0  0  0  0  0  0  0  0  0  0  0  0
    0.0000    0.7111    0.0000 C   0  0  0  0  0  0  0  0  0  0  0  0
  1  2  1  0  0  0  0
  3  1  2  0  0  0  0
  1  4  1  0  0  0  0
  5  3  1  0  0  0  0
  4  6  2  0  0  0  0
  7  5  2  0  0  0  0
  6  7  1  0  0  0  0
  7  8  1  0  0  0  0
  8  9  2  0  0  0  0
 10  8  1  0  0  0  0
  9 11  1  0  0  0  0
 12 10  2  0  0  0  0
 11 13  2  0  0  0  0
 13 12  1  0  0  0  0
M  END
>  <Name>
1-fluoro-4-phenylbenzene

>  <IGC50>
3.53

>  <CAS>
324-74-3

>  <SET>
ws

>  <Species>
Tetrahymena pyriformis

>  <Test duration>
48h

$$$$

  Mrv1808 07152009203D          

  8  7  0  0  0  0            999 V2000
    0.0000    0.0000    0.0000 C   0  0  0  0  0  0  0  0  0  0  0  0
    0.4800    0.6000    1.3200 C   0  0  0  0  0  0  0  0  0  0  0  0
    1.2200    1.9400    1.1400 C   0  0  0  0  0  0  0  0  0  0  0  0
    2.6200    1.7000    1.0800 O   0  0  0  0  0  0  0  0  0  0  0  0
    3.2000    1.7600    2.2600 C   0  0  0  0  0  0  0  0  0  0  0  0
    2.5800    1.7600    3.3200 O   0  0  0  0  0  0  0  0  0  0  0  0
    4.6600    1.7800    2.2600 C   0  0  0  0  0  0  0  0  0  0  0  0
    5.3400    1.8400    3.4200 C   0  0  0  0  0  0  0  0  0  0  0  0
  1  2  1  0  0  0  0
  2  3  1  0  0  0  0
  3  4  1  0  0  0  0
  4  5  1  0  0  0  0
  5  6  2  0  0  0  0
  5  7  1  0  0  0  0
  7  8  2  0  0  0  0
M  END
>  <Name>
propyl prop-2-enoate

>  <IGC50>
3.53

>  <CAS>
925-60-0

>  <SET>
ws

>  <Species>
Tetrahymena pyriformis

>  <Test duration>
48h

$$$$

  Mrv1808 07152009202D          

 14 14  0  0  0  0            999 V2000
    2.1353    1.2517    0.0000 C   0  0  0  0  0  0  0  0  0  0  0  0
    2.8470    1.6689    0.0000 C   0  0  0  0  0  0  0  0  0  0  0  0
    1.4236    1.6689    0.0000 C   0  0  0  0  0  0  0  0  0  0  0  0
    2.1353    0.4172    0.0000 C   0  0  0  0  0  0  0  0  0  0  0  0
    2.8470    2.4789    0.0000 C   0  0  0  0  0  0  0  0  0  0  0  0
    1.4236    2.4789    0.0000 C   0  0  0  0  0  0  0  0  0  0  0  0
    2.8470    0.0000    0.0000 O   0  0  0  0  0  0  0  0  0  0  0  0
    2.1353    2.8961    0.0000 C   0  0  0  0  0  0  0  0  0  0  0  0
    3.5588    2.8961    0.0000 N   0  3  0  0  0  0  0  0  0  0  0  0
    0.7118    2.8961    0.0000 N   0  3  0  0  0  0  0  0  0  0  0  0
    4.2706    2.4789    0.0000 O   0  5  0  0  0  0  0  0  0  0  0  0
    3.5588    3.7061    0.0000 O   0  0  0  0  0  0  0  0  0  0  0  0
    0.0000    2.4789    0.0000 O   0  0  0  0  0  0  0  0  0  0  0  0
    0.7118    3.7061    0.0000 O   0  5  0  0  0  0  0  0  0  0  0  0
  1  2  2  0  0  0  0
  1  3  1  0  0  0  0
  1  4  1  0  0  0  0
  2  5  1  0  0  0  0
  3  6  2  0  0  0  0
  4  7  1  0  0  0  0
  5  8  2  0  0  0  0
  5  9  1  0  0  0  0
  6  8  1  0  0  0  0
  6 10  1  0  0  0  0
  9 11  1  0  0  0  0
  9 12  2  0  0  0  0
 10 13  2  0  0  0  0
 10 14  1  0  0  0  0
M  CHG  4   9   1  10   1  11  -1  14  -1
M  END
>  <Name>
3,5-Dinitrobenzyl alcohol

>  <IGC50>
3.53

>  <CAS>
71022-43-0

>  <SET>
ws

>  <Species>
Tetrahymena pyriformis

>  <Test duration>
48h

$$$$

  Mrv1808 07152009203D          

  9  8  0  0  0  0            999 V2000
   -0.2766   -0.3030    0.2998 C   0  0  0  0  0  0  0  0  0  0  0  0
   -1.3237    0.7523    0.0171 C   0  0  0  0  0  0  0  0  0  0  0  0
   -0.5566   -1.4361    0.6562 O   0  0  0  0  0  0  0  0  0  0  0  0
    1.1008    0.0790    0.2428 N   0  0  2  0  0  0  0  0  0  0  0  0
   -2.9102    0.0150   -0.2202 Cl  0  0  0  0  0  0  0  0  0  0  0  0
    1.5035    1.2517   -0.5851 C   0  0  0  0  0  0  0  0  0  0  0  0
    2.1588   -0.9485    0.4342 C   0  0  0  0  0  0  0  0  0  0  0  0
    1.9587    2.4042    0.2906 C   0  0  0  0  0  0  0  0  0  0  0  0
    2.4158   -1.8254   -0.7766 C   0  0  0  0  0  0  0  0  0  0  0  0
  1  2  1  0  0  0  0
  1  3  2  0  0  0  0
  1  4  1  0  0  0  0
  2  5  1  0  0  0  0
  4  6  1  0  0  0  0
  4  7  1  0  0  0  0
  6  8  1  0  0  0  0
  7  9  1  0  0  0  0
M  END
>  <Name>
Acetamide, 2-chloro-N,N-diethyl-

>  <IGC50>
3.521

>  <CAS>
2315-36-8

>  <SET>
ws

>  <Species>
Tetrahymena pyriformis

>  <Test duration>
48h

$$$$

  Mrv1808 07152009202D          

 11 11  0  0  0  0            999 V2000
    0.0000   -2.1379    0.0000 O   0  0  0  0  0  0  0  0  0  0  0  0
    0.4113   -1.4265    0.0000 N   0  3  0  0  0  0  0  0  0  0  0  0
    1.2338   -1.4265    0.0000 C   0  0  0  0  0  0  0  0  0  0  0  0
    0.0000   -0.7114    0.0000 O   0  5  0  0  0  0  0  0  0  0  0  0
    1.6451   -0.7114    0.0000 C   0  0  0  0  0  0  0  0  0  0  0  0
    1.6451   -2.1379    0.0000 C   0  0  0  0  0  0  0  0  0  0  0  0
    2.4714   -0.7114    0.0000 C   0  0  0  0  0  0  0  0  0  0  0  0
    2.4714   -2.1379    0.0000 C   0  0  0  0  0  0  0  0  0  0  0  0
    2.8827   -1.4265    0.0000 C   0  0  0  0  0  0  0  0  0  0  0  0
    2.8827    0.0000    0.0000 N   0  0  0  0  0  0  0  0  0  0  0  0
    3.7052   -1.4265    0.0000 N   0  0  0  0  0  0  0  0  0  0  0  0
  1  2  2  0  0  0  0
  2  3  1  0  0  0  0
  2  4  1  0  0  0  0
  3  5  2  0  0  0  0
  3  6  1  0  0  0  0
  5  7  1  0  0  0  0
  8  6  2  0  0  0  0
  7  9  2  0  0  0  0
  7 10  1  0  0  0  0
  9  8  1  0  0  0  0
  9 11  1  0  0  0  0
M  CHG  2   2   1   4  -1
M  END
>  <Name>
1,2-Benzenediamine, 4-nitro-

>  <IGC50>
3.52

>  <CAS>
99-56-9

>  <SET>
ws

>  <Species>
Tetrahymena pyriformis

>  <Test duration>
48h

$$$$

  Mrv1808 07152009202D          

  7  6  0  0  0  0            999 V2000
    1.6505    0.0000    0.0000 O   0  0  0  0  0  0  0  0  0  0  0  0
    1.2401   -0.7169    0.0000 C   0  0  0  0  0  0  0  0  0  0  0  0
    1.6505   -1.4309    0.0000 O   0  0  0  0  0  0  0  0  0  0  0  0
    0.4134   -0.7169    0.0000 C   0  0  0  0  0  0  0  0  0  0  0  0
    2.4773   -1.4309    0.0000 C   0  0  0  0  0  0  0  0  0  0  0  0
    0.0000   -1.4309    0.0000 C   0  0  0  0  0  0  0  0  0  0  0  0
    2.8906   -0.7169    0.0000 C   0  0  0  0  0  0  0  0  0  0  0  0
  1  2  2  0  0  0  0
  2  3  1  0  0  0  0
  2  4  1  0  0  0  0
  3  5  1  0  0  0  0
  4  6  2  0  0  0  0
  5  7  1  0  0  0  0
M  END
>  <Name>
2-Propenoic acid, ethyl ester

>  <IGC50>
3.52

>  <CAS>
140-88-5

>  <SET>
ws

>  <Species>
Tetrahymena pyriformis

>  <Test duration>
48h

$$$$

  Mrv1808 07152009202D          

  9  8  0  0  0  0            999 V2000
    0.7134    0.0000    0.0000 O   0  0  0  0  0  0  0  0  0  0  0  0
    0.7134   -0.8202    0.0000 C   0  0  0  0  0  0  0  0  0  0  0  0
    1.4226   -1.2346    0.0000 O   0  0  0  0  0  0  0  0  0  0  0  0
    0.0000   -1.2346    0.0000 C   0  0  0  0  0  0  0  0  0  0  0  0
    2.1360   -0.8202    0.0000 C   0  0  0  0  0  0  0  0  0  0  0  0
    0.0000   -2.0548    0.0000 C   0  0  0  0  0  0  0  0  0  0  0  0
    2.8494   -1.2346    0.0000 C   0  0  0  0  0  0  0  0  0  0  0  0
    3.5585   -0.8202    0.0000 C   0  0  0  0  0  0  0  0  0  0  0  0
    4.2720   -1.2346    0.0000 C   0  0  0  0  0  0  0  0  0  0  0  0
  1  2  2  0  0  0  0
  2  3  1  0  0  0  0
  2  4  1  0  0  0  0
  3  5  1  0  0  0  0
  4  6  2  0  0  0  0
  5  7  1  0  0  0  0
  7  8  1  0  0  0  0
  8  9  1  0  0  0  0
M  END
>  <Name>
Acrylic acid butyl ester (8CI)

>  <IGC50>
3.52

>  <CAS>
141-32-2

>  <SET>
ws

>  <Species>
Tetrahymena pyriformis

>  <Test duration>
48h

$$$$

  Mrv1808 07152009203D          

 11 11  0  0  0  0            999 V2000
    1.3304    0.6901    0.5126 O   0  0  0  0  0  0  0  0  0  0  0  0
    2.2907   -0.3188    0.2030 C   0  0  0  0  0  0  0  0  0  0  0  0
    0.0217    0.3881    0.2924 C   0  0  0  0  0  0  0  0  0  0  0  0
    3.5987    0.3512   -0.1889 C   0  0  0  0  0  0  0  0  0  0  0  0
   -0.8803    1.3984   -0.0414 C   0  0  0  0  0  0  0  0  0  0  0  0
   -0.4178   -0.9314    0.4007 C   0  0  0  0  0  0  0  0  0  0  0  0
    4.6682   -0.6648   -0.5480 C   0  0  0  0  0  0  0  0  0  0  0  0
   -2.2217    1.0895   -0.2668 C   0  0  0  0  0  0  0  0  0  0  0  0
   -1.7593   -1.2403    0.1752 C   0  0  0  0  0  0  0  0  0  0  0  0
   -2.6611   -0.2299   -0.1585 C   0  0  0  0  0  0  0  0  0  0  0  0
   -3.9696   -0.5320   -0.3802 O   0  0  0  0  0  0  0  0  0  0  0  0
  1  2  1  0  0  0  0
  1  3  1  0  0  0  0
  4  2  1  0  0  0  0
  3  5  2  0  0  0  0
  3  6  1  0  0  0  0
  4  7  1  0  0  0  0
  5  8  1  0  0  0  0
  6  9  2  0  0  0  0
  8 10  2  0  0  0  0
  9 10  1  0  0  0  0
 11 10  1  0  0  0  0
M  END
>  <Name>
4-propoxyphenol

>  <IGC50>
3.52

>  <CAS>
18979-50-5

>  <SET>
ws

>  <Species>
Tetrahymena pyriformis

>  <Test duration>
48h

$$$$

  Mrv1808 07152009202D          

  9  9  0  0  0  0            999 V2000
    1.4462   -0.0022    0.0000 C   0  0  0  0  0  0  0  0  0  0  0  0
    0.6074    0.0006    0.0000 C   0  0  0  0  0  0  0  0  0  0  0  0
    2.1298   -0.0044    0.0000 N   0  0  0  0  0  0  0  0  0  0  0  0
    0.1964   -0.7147    0.0000 C   0  0  0  0  0  0  0  0  0  0  0  0
    0.2028    0.7180    0.0000 C   0  0  0  0  0  0  0  0  0  0  0  0
   -0.6206   -0.7155    0.0000 C   0  0  0  0  0  0  0  0  0  0  0  0
   -0.6153    0.7239    0.0000 C   0  0  0  0  0  0  0  0  0  0  0  0
   -1.0251    0.0062    0.0000 C   0  0  0  0  0  0  0  0  0  0  0  0
   -1.8280   -0.0397    0.0000 O   0  0  0  0  0  0  0  0  0  0  0  0
  1  2  1  0  0  0  0
  1  3  3  0  0  0  0
  2  4  1  0  0  0  0
  2  5  2  0  0  0  0
  4  6  2  0  0  0  0
  7  5  1  0  0  0  0
  6  8  1  0  0  0  0
  8  7  2  0  0  0  0
  8  9  1  0  0  0  0
M  END
>  <Name>
Benzonitrile, 4-hydroxy-

>  <IGC50>
3.52

>  <CAS>
767-00-0

>  <SET>
ws

>  <Species>
Tetrahymena pyriformis

>  <Test duration>
48h

$$$$

  Mrv1808 07152009203D          

 10  9  0  0  0  0            999 V2000
    1.0814    0.3824   -0.0014 C   0  0  0  0  0  0  0  0  0  0  0  0
    2.2422   -0.5851   -0.0024 C   0  0  0  0  0  0  0  0  0  0  0  0
    1.0990    1.5973   -0.0011 O   0  0  0  0  0  0  0  0  0  0  0  0
   -0.1221   -0.2648   -0.0011 O   0  0  0  0  0  0  0  0  0  0  0  0
    3.5898    0.1180    0.0038 C   0  0  0  0  0  0  0  0  0  0  0  0
   -1.3166    0.5177   -0.0008 C   0  0  0  0  0  0  0  0  0  0  0  0
    4.7224   -0.8841    0.0010 C   0  0  0  0  0  0  0  0  0  0  0  0
   -2.4781   -0.4721   -0.0015 C   0  0  0  0  0  0  0  0  0  0  0  0
   -3.8032    0.2733    0.0029 C   0  0  0  0  0  0  0  0  0  0  0  0
   -4.9732   -0.6843    0.0008 C   0  0  0  0  0  0  0  0  0  0  0  0
  1  2  1  0  0  0  0
  1  3  2  0  0  0  0
  1  4  1  0  0  0  0
  2  5  1  0  0  0  0
  4  6  1  0  0  0  0
  5  7  1  0  0  0  0
  6  8  1  0  0  0  0
  8  9  1  0  0  0  0
  9 10  1  0  0  0  0
M  END
>  <Name>
Butanoic acid, butyl ester

>  <IGC50>
3.516

>  <CAS>
109-21-7

>  <SET>
ws

>  <Species>
Tetrahymena pyriformis

>  <Test duration>
48h

$$$$

  Mrv1808 07152009202D          

 10 10  0  0  0  0            999 V2000
    1.2340   -1.4266    0.0000 C   0  0  0  0  0  0  0  0  0  0  0  0
    0.4113   -1.4266    0.0000 C   0  0  0  0  0  0  0  0  0  0  0  0
    1.6453   -0.7115    0.0000 C   0  0  0  0  0  0  0  0  0  0  0  0
    1.6453   -2.1382    0.0000 C   0  0  0  0  0  0  0  0  0  0  0  0
    0.0000   -2.1382    0.0000 O   0  0  0  0  0  0  0  0  0  0  0  0
    1.2340    0.0000    0.0000 O   0  0  0  0  0  0  0  0  0  0  0  0
    2.4717   -0.7115    0.0000 C   0  0  0  0  0  0  0  0  0  0  0  0
    2.4717   -2.1382    0.0000 C   0  0  0  0  0  0  0  0  0  0  0  0
    2.8830   -1.4266    0.0000 C   0  0  0  0  0  0  0  0  0  0  0  0
    3.7056   -1.4266    0.0000 O   0  0  0  0  0  0  0  0  0  0  0  0
  1  2  1  0  0  0  0
  1  3  2  0  0  0  0
  1  4  1  0  0  0  0
  2  5  2  0  0  0  0
  3  6  1  0  0  0  0
  3  7  1  0  0  0  0
  8  4  2  0  0  0  0
  7  9  2  0  0  0  0
  9  8  1  0  0  0  0
  9 10  1  0  0  0  0
M  END
>  <Name>
Benzaldehyde, 2,4-dihydroxy-

>  <IGC50>
3.515

>  <CAS>
95-01-2

>  <SET>
ws

>  <Species>
Tetrahymena pyriformis

>  <Test duration>
48h

$$$$

  Mrv1808 07152009202D          

 16 15  0  0  0  0            999 V2000
    7.8713   -2.0702    0.0000 C   0  0  0  0  0  0  0  0  0  0  0  0
    7.1550   -2.4795    0.0000 C   0  0  0  0  0  0  0  0  0  0  0  0
    6.4387   -2.0702    0.0000 C   0  0  0  0  0  0  0  0  0  0  0  0
    5.7224   -2.4795    0.0000 C   0  0  0  0  0  0  0  0  0  0  0  0
    5.0061   -2.0702    0.0000 O   0  0  0  0  0  0  0  0  0  0  0  0
    4.2899   -2.4795    0.0000 C   0  0  0  0  0  0  0  0  0  0  0  0
    4.2899   -3.3059    0.0000 O   0  0  0  0  0  0  0  0  0  0  0  0
    3.5815   -2.0702    0.0000 C   0  0  0  0  0  0  0  0  0  0  0  0
    2.8652   -2.4795    0.0000 C   0  0  0  0  0  0  0  0  0  0  0  0
    2.1489   -2.0702    0.0000 C   0  0  0  0  0  0  0  0  0  0  0  0
    2.1489   -1.2437    0.0000 O   0  0  0  0  0  0  0  0  0  0  0  0
    1.4325   -2.4795    0.0000 O   0  0  0  0  0  0  0  0  0  0  0  0
    0.7163   -2.0702    0.0000 C   0  0  0  0  0  0  0  0  0  0  0  0
    0.7163   -1.2437    0.0000 C   0  0  0  0  0  0  0  0  0  0  0  0
    0.0000   -0.8265    0.0000 C   0  0  0  0  0  0  0  0  0  0  0  0
    0.0000    0.0000    0.0000 C   0  0  0  0  0  0  0  0  0  0  0  0
  1  2  1  0  0  0  0
  2  3  1  0  0  0  0
  3  4  1  0  0  0  0
  4  5  1  0  0  0  0
  5  6  1  0  0  0  0
  6  7  2  0  0  0  0
  6  8  1  0  0  0  0
  8  9  1  0  0  0  0
  9 10  1  0  0  0  0
 10 11  2  0  0  0  0
 10 12  1  0  0  0  0
 12 13  1  0  0  0  0
 13 14  1  0  0  0  0
 14 15  1  0  0  0  0
 15 16  1  0  0  0  0
M  END
>  <Name>
Butanedioic acid, dibutyl ester

>  <IGC50>
3.512

>  <CAS>
141-03-7

>  <SET>
ws

>  <Species>
Tetrahymena pyriformis

>  <Test duration>
48h

$$$$

  Mrv1808 07152009202D          

  9  8  0  0  0  0            999 V2000
    0.0000    2.1037    0.0000 Br  0  0  0  0  0  0  0  0  0  0  0  0
    0.8250    2.1037    0.0000 C   0  0  0  0  0  0  0  0  0  0  0  0
    1.2375    1.4025    0.0000 C   0  0  0  0  0  0  0  0  0  0  0  0
    2.0625    1.4025    0.0000 C   0  0  0  0  0  0  0  0  0  0  0  0
    2.4750    0.7425    0.0000 C   0  0  0  0  0  0  0  0  0  0  0  0
    3.2587    0.7425    0.0000 C   0  0  0  0  0  0  0  0  0  0  0  0
    3.6712    0.0000    0.0000 C   0  0  0  0  0  0  0  0  0  0  0  0
    4.4962    0.0000    0.0000 C   0  0  0  0  0  0  0  0  0  0  0  0
    5.3212    0.0000    0.0000 N   0  0  0  0  0  0  0  0  0  0  0  0
  1  2  1  0  0  0  0
  2  3  1  0  0  0  0
  3  4  1  0  0  0  0
  4  5  1  0  0  0  0
  5  6  1  0  0  0  0
  6  7  1  0  0  0  0
  8  7  1  0  0  0  0
  9  8  3  0  0  0  0
M  END
>  <Name>
Heptanenitrile, 7-bromo-

>  <IGC50>
3.512

>  <CAS>
20965-27-9

>  <SET>
ws

>  <Species>
Tetrahymena pyriformis

>  <Test duration>
48h

$$$$

  Mrv1808 07152009203D          

  7  6  0  0  0  0            999 V2000
    1.0326    4.4381   -1.9809 O   0  0  0  0  0  0  0  0  0  0  0  0
    1.8508    4.4235   -0.8145 C   0  0  1  0  0  0  0  0  0  0  0  0
    1.2915    5.4427    0.1660 C   0  0  0  0  0  0  0  0  0  0  0  0
    1.8659    3.0778   -0.2281 C   0  0  0  0  0  0  0  0  0  0  0  0
    1.8800    1.9769    0.2520 C   0  0  0  0  0  0  0  0  0  0  0  0
    1.8976    0.6327    0.8414 C   0  0  0  0  0  0  0  0  0  0  0  0
    1.0429   -0.3326    0.0380 C   0  0  0  0  0  0  0  0  0  0  0  0
  1  2  1  0  0  0  0
  2  3  1  0  0  0  0
  2  4  1  0  0  0  0
  4  5  3  0  0  0  0
  6  5  1  0  0  0  0
  6  7  1  0  0  0  0
M  END
>  <Name>
3-Hexyn-2-ol

>  <IGC50>
3.511

>  <CAS>
109-50-2

>  <SET>
ws

>  <Species>
Tetrahymena pyriformis

>  <Test duration>
48h

$$$$

  Mrv1808 07152009202D          

 10 10  0  0  0  0            999 V2000
    2.8858    0.0000    0.0000 O   0  0  0  0  0  0  0  0  0  0  0  0
    2.4731   -0.7128    0.0000 C   0  0  0  0  0  0  0  0  0  0  0  0
    2.8858   -1.4285    0.0000 C   0  0  0  0  0  0  0  0  0  0  0  0
    1.6478   -0.7128    0.0000 C   0  0  0  0  0  0  0  0  0  0  0  0
    2.4731   -2.1412    0.0000 C   0  0  0  0  0  0  0  0  0  0  0  0
    1.2380   -1.4285    0.0000 C   0  0  0  0  0  0  0  0  0  0  0  0
    1.6478   -2.1412    0.0000 C   0  0  0  0  0  0  0  0  0  0  0  0
    0.4127   -1.4285    0.0000 N   0  3  0  0  0  0  0  0  0  0  0  0
    0.0000   -2.1412    0.0000 O   0  5  0  0  0  0  0  0  0  0  0  0
    0.0000   -0.7128    0.0000 O   0  0  0  0  0  0  0  0  0  0  0  0
  1  2  1  0  0  0  0
  2  3  2  0  0  0  0
  2  4  1  0  0  0  0
  3  5  1  0  0  0  0
  6  4  2  0  0  0  0
  5  7  2  0  0  0  0
  7  6  1  0  0  0  0
  6  8  1  0  0  0  0
  8  9  1  0  0  0  0
  8 10  2  0  0  0  0
M  CHG  2   8   1   9  -1
M  END
>  <Name>
Phenol, 3-nitro-

>  <IGC50>
3.51

>  <CAS>
554-84-7

>  <SET>
ws

>  <Species>
Tetrahymena pyriformis

>  <Test duration>
48h

$$$$

  Mrv1808 07152009202D          

  8  8  0  0  0  0            999 V2000
    0.6625    0.2070    0.0000 S   0  0  0  0  0  0  0  0  0  0  0  0
    1.3249    0.7039    0.0000 C   0  0  0  0  0  0  0  0  0  0  0  0
    0.0000    0.7039    0.0000 C   0  0  0  0  0  0  0  0  0  0  0  0
    2.1531    0.7039    0.0000 N   0  0  0  0  0  0  0  0  0  0  0  0
    1.0765    1.4906    0.0000 C   0  0  0  0  0  0  0  0  0  0  0  0
    0.2484    1.4906    0.0000 C   0  0  0  0  0  0  0  0  0  0  0  0
    2.5256    0.0000    0.0000 O   0  0  0  0  0  0  0  0  0  0  0  0
    2.1531    1.5319    0.0000 O   0  0  0  0  0  0  0  0  0  0  0  0
  2  1  1  0  0  0  0
  1  3  1  0  0  0  0
  2  4  1  0  0  0  0
  5  2  2  0  0  0  0
  3  6  2  0  0  0  0
  4  7  2  0  0  0  0
  4  8  2  0  0  0  0
  6  5  1  0  0  0  0
M  END
>  <Name>
2-nitrothiophene

>  <IGC50>
3.51

>  <CAS>
609-40-5

>  <SET>
ws

>  <Species>
Tetrahymena pyriformis

>  <Test duration>
48h

$$$$

  Mrv1808 07152009202D          

 16 16  0  0  0  0            999 V2000
    2.8463    2.0213    0.0000 C   0  0  0  0  0  0  0  0  0  0  0  0
    2.1450    2.4337    0.0000 C   0  0  0  0  0  0  0  0  0  0  0  0
    2.8463    1.1963    0.0000 C   0  0  0  0  0  0  0  0  0  0  0  0
    1.4025    2.0213    0.0000 C   0  0  0  0  0  0  0  0  0  0  0  0
    2.1450    3.2587    0.0000 C   0  0  0  0  0  0  0  0  0  0  0  0
    2.1450    0.7837    0.0000 C   0  0  0  0  0  0  0  0  0  0  0  0
    3.5475    0.7837    0.0000 N   0  0  0  0  0  0  0  0  0  0  0  0
    1.4025    1.1963    0.0000 C   0  0  0  0  0  0  0  0  0  0  0  0
    1.4437    3.6713    0.0000 N   0  0  0  0  0  0  0  0  0  0  0  0
    2.8463    3.6713    0.0000 O   0  0  0  0  0  0  0  0  0  0  0  0
    2.1450    0.0000    0.0000 N   0  0  0  0  0  0  0  0  0  0  0  0
    3.5475    0.0000    0.0000 O   0  0  0  0  0  0  0  0  0  0  0  0
    4.2488    1.1550    0.0000 O   0  0  0  0  0  0  0  0  0  0  0  0
    0.7012    0.7837    0.0000 N   0  0  0  0  0  0  0  0  0  0  0  0
    0.0000    1.1550    0.0000 O   0  0  0  0  0  0  0  0  0  0  0  0
    0.7012    0.0000    0.0000 O   0  0  0  0  0  0  0  0  0  0  0  0
  2  1  2  0  0  0  0
  1  3  1  0  0  0  0
  4  2  1  0  0  0  0
  2  5  1  0  0  0  0
  3  6  2  0  0  0  0
  3  7  1  0  0  0  0
  8  4  2  0  0  0  0
  5  9  1  0  0  0  0
  5 10  2  0  0  0  0
  6  8  1  0  0  0  0
  6 11  1  0  0  0  0
  7 12  2  0  0  0  0
  7 13  2  0  0  0  0
  8 14  1  0  0  0  0
 14 15  2  0  0  0  0
 14 16  2  0  0  0  0
M  END
>  <Name>
4-Amino-3,5-dinitrobenzamide

>  <IGC50>
3.51

>  <CAS>
54321-79-8

>  <SET>
ws

>  <Species>
Tetrahymena pyriformis

>  <Test duration>
48h

$$$$

  Mrv1808 07152009202D          

 12 11  0  0  0  0            999 V2000
    0.0000   -1.2346    0.0000 C   0  0  0  0  0  0  0  0  0  0  0  0
    0.7136   -0.8207    0.0000 C   0  0  0  0  0  0  0  0  0  0  0  0
    1.4274   -1.2346    0.0000 C   0  0  0  0  0  0  0  0  0  0  0  0
    2.1410   -0.8207    0.0000 C   0  0  0  0  0  0  0  0  0  0  0  0
    2.8546   -1.2346    0.0000 C   0  0  0  0  0  0  0  0  0  0  0  0
    3.5684   -0.8207    0.0000 C   0  0  0  0  0  0  0  0  0  0  0  0
    4.2820   -1.2346    0.0000 C   0  0  0  0  0  0  0  0  0  0  0  0
    4.9957   -0.8207    0.0000 C   0  0  0  0  0  0  0  0  0  0  0  0
    5.7093   -1.2346    0.0000 C   0  0  0  0  0  0  0  0  0  0  0  0
    6.4230   -0.8207    0.0000 C   0  0  0  0  0  0  0  0  0  0  0  0
    7.1367   -1.2346    0.0000 O   0  0  0  0  0  0  0  0  0  0  0  0
    6.4230    0.0000    0.0000 O   0  0  0  0  0  0  0  0  0  0  0  0
  1  2  1  0  0  0  0
  2  3  1  0  0  0  0
  3  4  1  0  0  0  0
  4  5  1  0  0  0  0
  5  6  1  0  0  0  0
  6  7  1  0  0  0  0
  7  8  1  0  0  0  0
  8  9  1  0  0  0  0
  9 10  1  0  0  0  0
 10 11  1  0  0  0  0
 10 12  2  0  0  0  0
M  END
>  <Name>
Decanoic acid

>  <IGC50>
3.506

>  <CAS>
334-48-5

>  <SET>
ws

>  <Species>
Tetrahymena pyriformis

>  <Test duration>
48h

$$$$

  Mrv1808 07152009202D          

  9  9  0  0  0  0            999 V2000
    0.7137   -2.4694    0.0000 C   0  0  0  0  0  0  0  0  0  0  0  0
    0.0000   -2.0640    0.0000 O   0  0  0  0  0  0  0  0  0  0  0  0
    1.4274   -2.0640    0.0000 C   0  0  0  0  0  0  0  0  0  0  0  0
    1.4274   -1.2390    0.0000 C   0  0  0  0  0  0  0  0  0  0  0  0
    2.1410   -2.4694    0.0000 C   0  0  0  0  0  0  0  0  0  0  0  0
    2.1410   -0.8250    0.0000 C   0  0  0  0  0  0  0  0  0  0  0  0
    2.8548   -2.0640    0.0000 C   0  0  0  0  0  0  0  0  0  0  0  0
    2.8548   -1.2390    0.0000 C   0  0  0  0  0  0  0  0  0  0  0  0
    2.1410    0.0000    0.0000 Br  0  0  0  0  0  0  0  0  0  0  0  0
  1  2  2  0  0  0  0
  1  3  1  0  0  0  0
  3  4  2  0  0  0  0
  3  5  1  0  0  0  0
  4  6  1  0  0  0  0
  5  7  2  0  0  0  0
  6  8  2  0  0  0  0
  6  9  1  0  0  0  0
  7  8  1  0  0  0  0
M  END
>  <Name>
Benzaldehyde, m-bromo- (6CI,7CI,8CI)

>  <IGC50>
3.506

>  <CAS>
3132-99-8

>  <SET>
ws

>  <Species>
Tetrahymena pyriformis

>  <Test duration>
48h

$$$$

  Mrv1808 07152009203D          

 14 15  0  0  0  0            999 V2000
    0.0009   -0.7927   -1.0701 C   0  0  1  0  0  0  0  0  0  0  0  0
   -1.2409   -0.2356   -0.4042 C   0  0  0  0  0  0  0  0  0  0  0  0
    1.2386   -0.2410   -0.3988 C   0  0  0  0  0  0  0  0  0  0  0  0
    0.0664   -2.2073   -1.0298 O   0  0  0  0  0  0  0  0  0  0  0  0
   -1.7546   -0.8053    0.7608 C   0  0  0  0  0  0  0  0  0  0  0  0
   -1.8731    0.8753   -0.9646 C   0  0  0  0  0  0  0  0  0  0  0  0
    1.7304   -0.7877    0.7864 C   0  0  0  0  0  0  0  0  0  0  0  0
    1.8937    0.8469   -0.9793 C   0  0  0  0  0  0  0  0  0  0  0  0
   -2.8949   -0.2738    1.3532 C   0  0  0  0  0  0  0  0  0  0  0  0
   -3.0106    1.4063   -0.3676 C   0  0  0  0  0  0  0  0  0  0  0  0
    2.8686   -0.2535    1.3810 C   0  0  0  0  0  0  0  0  0  0  0  0
    3.0274    1.3813   -0.3786 C   0  0  0  0  0  0  0  0  0  0  0  0
   -3.5243    0.8311    0.7901 C   0  0  0  0  0  0  0  0  0  0  0  0
    3.5174    0.8309    0.8011 C   0  0  0  0  0  0  0  0  0  0  0  0
  1  2  1  0  0  0  0
  1  3  1  0  0  0  0
  1  4  1  0  0  0  0
  2  5  1  0  0  0  0
  2  6  2  0  0  0  0
  3  7  1  0  0  0  0
  3  8  2  0  0  0  0
  5  9  2  0  0  0  0
 10  6  1  0  0  0  0
  7 11  2  0  0  0  0
 12  8  1  0  0  0  0
  9 13  1  0  0  0  0
 13 10  2  0  0  0  0
 11 14  1  0  0  0  0
 14 12  2  0  0  0  0
M  END
>  <Name>
Benzenemethanol, alpha-phenyl-

>  <IGC50>
3.5

>  <CAS>
91-01-0

>  <SET>
ws

>  <Species>
Tetrahymena pyriformis

>  <Test duration>
48h

$$$$

  Mrv1808 07152009202D          

  9  9  0  0  0  0            999 V2000
    2.8594   -1.6499    0.0000 N   0  0  0  0  0  0  0  0  0  0  0  0
    2.1445   -1.2381    0.0000 C   0  0  0  0  0  0  0  0  0  0  0  0
    1.4297   -1.6499    0.0000 C   0  0  0  0  0  0  0  0  0  0  0  0
    2.1445   -0.4118    0.0000 C   0  0  0  0  0  0  0  0  0  0  0  0
    0.7148   -1.2381    0.0000 C   0  0  0  0  0  0  0  0  0  0  0  0
    1.4297    0.0000    0.0000 C   0  0  0  0  0  0  0  0  0  0  0  0
    2.8594    0.0000    0.0000 C   0  0  0  0  0  0  0  0  0  0  0  0
    0.7148   -0.4118    0.0000 C   0  0  0  0  0  0  0  0  0  0  0  0
    0.0000   -1.6499    0.0000 Cl  0  0  0  0  0  0  0  0  0  0  0  0
  1  2  1  0  0  0  0
  2  3  2  0  0  0  0
  2  4  1  0  0  0  0
  3  5  1  0  0  0  0
  6  4  2  0  0  0  0
  4  7  1  0  0  0  0
  5  8  2  0  0  0  0
  5  9  1  0  0  0  0
  8  6  1  0  0  0  0
M  END
>  <Name>
Benzenamine, 5-chloro-2-methyl-

>  <IGC50>
3.5

>  <CAS>
95-79-4

>  <SET>
ws

>  <Species>
Tetrahymena pyriformis

>  <Test duration>
48h

$$$$

  Mrv1808 07152009202D          

 10 10  0  0  0  0            999 V2000
    0.0000    1.2548    0.0000 C   0  0  0  0  0  0  0  0  0  0  0  0
    0.7110    1.6731    0.0000 C   0  0  0  0  0  0  0  0  0  0  0  0
    0.0000    0.4183    0.0000 C   0  0  0  0  0  0  0  0  0  0  0  0
    1.4221    1.2548    0.0000 C   0  0  0  0  0  0  0  0  0  0  0  0
    0.7110    0.0000    0.0000 C   0  0  0  0  0  0  0  0  0  0  0  0
    1.4639    0.4183    0.0000 C   0  0  0  0  0  0  0  0  0  0  0  0
    2.1749    1.6731    0.0000 C   0  0  0  0  0  0  0  0  0  0  0  0
    2.8860    1.2548    0.0000 C   0  0  0  0  0  0  0  0  0  0  0  0
    3.5971    1.6731    0.0000 C   0  0  0  0  0  0  0  0  0  0  0  0
    4.3500    1.2548    0.0000 Cl  0  0  0  0  0  0  0  0  0  0  0  0
  1  2  2  0  0  0  0
  3  1  1  0  0  0  0
  2  4  1  0  0  0  0
  5  3  2  0  0  0  0
  4  6  2  0  0  0  0
  4  7  1  0  0  0  0
  6  5  1  0  0  0  0
  7  8  1  0  0  0  0
  8  9  1  0  0  0  0
  9 10  1  0  0  0  0
M  END
>  <Name>
3-chloropropylbenzene

>  <IGC50>
3.5

>  <CAS>
104-52-9

>  <SET>
ws

>  <Species>
Tetrahymena pyriformis

>  <Test duration>
48h

$$$$

  Mrv1808 07152009202D          

 12 12  0  0  0  0            999 V2000
    6.4386   -0.9980    0.0000 C   0  0  0  0  0  0  0  0  0  0  0  0
    5.7240   -1.4100    0.0000 C   0  0  0  0  0  0  0  0  0  0  0  0
    5.0028   -0.9980    0.0000 C   0  0  0  0  0  0  0  0  0  0  0  0
    4.2881   -1.4100    0.0000 C   0  0  0  0  0  0  0  0  0  0  0  0
    3.5670   -0.9980    0.0000 C   0  0  0  0  0  0  0  0  0  0  0  0
    2.8523   -1.4100    0.0000 C   0  0  0  0  0  0  0  0  0  0  0  0
    2.1376   -0.9980    0.0000 C   0  0  0  0  0  0  0  0  0  0  0  0
    1.3779   -1.3328    0.0000 O   0  0  0  0  0  0  0  0  0  0  0  0
    2.0475   -0.1738    0.0000 C   0  0  0  0  0  0  0  0  0  0  0  0
    0.8242   -0.7147    0.0000 C   0  0  0  0  0  0  0  0  0  0  0  0
    1.2362    0.0000    0.0000 C   0  0  0  0  0  0  0  0  0  0  0  0
    0.0000   -0.8049    0.0000 O   0  0  0  0  0  0  0  0  0  0  0  0
  1  2  1  0  0  0  0
  2  3  1  0  0  0  0
  3  4  1  0  0  0  0
  4  5  1  0  0  0  0
  5  6  1  0  0  0  0
  6  7  1  0  0  0  0
  7  8  1  0  0  0  0
  7  9  1  0  0  0  0
  8 10  1  0  0  0  0
 11  9  1  0  0  0  0
 10 12  2  0  0  0  0
 10 11  1  0  0  0  0
M  END
>  <Name>
2(3H)-Furanone, 5-hexyldihydro-

>  <IGC50>
3.493

>  <CAS>
706-14-9

>  <SET>
ws

>  <Species>
Tetrahymena pyriformis

>  <Test duration>
48h

$$$$

  Mrv1808 07152009202D          

 11 11  0  0  0  0            999 V2000
    3.2941   -1.4266    0.0000 N   0  3  0  0  0  0  0  0  0  0  0  0
    3.7054   -0.7114    0.0000 O   0  0  0  0  0  0  0  0  0  0  0  0
    3.7054   -2.1380    0.0000 O   0  5  0  0  0  0  0  0  0  0  0  0
    2.4715   -1.4266    0.0000 C   0  0  0  0  0  0  0  0  0  0  0  0
    2.0602   -2.1380    0.0000 C   0  0  0  0  0  0  0  0  0  0  0  0
    2.0602   -0.7114    0.0000 C   0  0  0  0  0  0  0  0  0  0  0  0
    1.2339   -2.1380    0.0000 C   0  0  0  0  0  0  0  0  0  0  0  0
    1.2339   -0.7114    0.0000 C   0  0  0  0  0  0  0  0  0  0  0  0
    0.8226   -1.4266    0.0000 C   0  0  0  0  0  0  0  0  0  0  0  0
    0.8226    0.0000    0.0000 C   0  0  0  0  0  0  0  0  0  0  0  0
    0.0000   -1.4266    0.0000 N   0  0  0  0  0  0  0  0  0  0  0  0
  1  2  2  0  0  0  0
  1  3  1  0  0  0  0
  1  4  1  0  0  0  0
  4  5  2  0  0  0  0
  4  6  1  0  0  0  0
  5  7  1  0  0  0  0
  8  6  2  0  0  0  0
  7  9  2  0  0  0  0
  9  8  1  0  0  0  0
  8 10  1  0  0  0  0
  9 11  1  0  0  0  0
M  CHG  2   1   1   3  -1
M  END
>  <Name>
Benzenamine, 2-methyl-4-nitro-

>  <IGC50>
3.49

>  <CAS>
99-52-5

>  <SET>
ws

>  <Species>
Tetrahymena pyriformis

>  <Test duration>
48h

$$$$

  Mrv1808 07152009202D          

  9  9  0  0  0  0            999 V2000
    0.0000   -2.1404    0.0000 O   0  0  0  0  0  0  0  0  0  0  0  0
    0.4125   -1.4279    0.0000 C   0  0  0  0  0  0  0  0  0  0  0  0
    1.2375   -1.4279    0.0000 C   0  0  0  0  0  0  0  0  0  0  0  0
    1.6472   -0.7125    0.0000 C   0  0  0  0  0  0  0  0  0  0  0  0
    1.6472   -2.1404    0.0000 C   0  0  0  0  0  0  0  0  0  0  0  0
    2.4722   -0.7125    0.0000 C   0  0  0  0  0  0  0  0  0  0  0  0
    1.2375    0.0000    0.0000 Cl  0  0  0  0  0  0  0  0  0  0  0  0
    2.4722   -2.1404    0.0000 C   0  0  0  0  0  0  0  0  0  0  0  0
    2.8846   -1.4279    0.0000 C   0  0  0  0  0  0  0  0  0  0  0  0
  1  2  2  0  0  0  0
  2  3  1  0  0  0  0
  3  4  2  0  0  0  0
  3  5  1  0  0  0  0
  4  6  1  0  0  0  0
  4  7  1  0  0  0  0
  8  5  2  0  0  0  0
  6  9  2  0  0  0  0
  9  8  1  0  0  0  0
M  END
>  <Name>
Benzaldehyde, 2-chloro-

>  <IGC50>
3.49

>  <CAS>
89-98-5

>  <SET>
ws

>  <Species>
Tetrahymena pyriformis

>  <Test duration>
48h

$$$$

  Mrv1808 07152009202D          

  8  8  0  0  0  0            999 V2000
    1.2375   -1.4289    0.0000 N   0  0  0  0  0  0  0  0  0  0  0  0
    0.8250   -0.7161    0.0000 C   0  0  0  0  0  0  0  0  0  0  0  0
    2.0625   -1.4289    0.0000 C   0  0  0  0  0  0  0  0  0  0  0  0
    0.0000   -0.7161    0.0000 N   0  0  0  0  0  0  0  0  0  0  0  0
    1.2375    0.0000    0.0000 C   0  0  0  0  0  0  0  0  0  0  0  0
    2.4750   -0.7161    0.0000 C   0  0  0  0  0  0  0  0  0  0  0  0
    2.0625    0.0000    0.0000 C   0  0  0  0  0  0  0  0  0  0  0  0
    3.3001   -0.7161    0.0000 Br  0  0  0  0  0  0  0  0  0  0  0  0
  1  2  2  0  0  0  0
  1  3  1  0  0  0  0
  2  4  1  0  0  0  0
  2  5  1  0  0  0  0
  6  3  2  0  0  0  0
  5  7  2  0  0  0  0
  7  6  1  0  0  0  0
  6  8  1  0  0  0  0
M  END
>  <Name>
5-Bromo-2-pyridylamine

>  <IGC50>
3.49

>  <CAS>
1072-97-5

>  <SET>
ws

>  <Species>
Tetrahymena pyriformis

>  <Test duration>
48h

$$$$

  Mrv1808 07152009203D          

 13 14  0  0  0  0            999 V2000
   -3.2663   -1.4667    0.9703 O   0  0  0  0  0  0  0  0  0  0  0  0
   -3.7568   -0.2355    0.4552 C   0  0  0  0  0  0  0  0  0  0  0  0
   -2.9351    0.1709   -0.7717 C   0  0  0  0  0  0  0  0  0  0  0  0
   -1.4925    0.3875   -0.4600 C   0  0  0  0  0  0  0  0  0  0  0  0
   -0.5931   -0.6754   -0.5490 C   0  0  0  0  0  0  0  0  0  0  0  0
   -1.0446    1.6493   -0.0803 C   0  0  0  0  0  0  0  0  0  0  0  0
    0.7681   -0.4884   -0.2585 C   0  0  0  0  0  0  0  0  0  0  0  0
    0.3042    1.8531    0.2120 C   0  0  0  0  0  0  0  0  0  0  0  0
    1.2235    0.7947    0.1277 C   0  0  0  0  0  0  0  0  0  0  0  0
    1.6873   -1.5469   -0.3427 C   0  0  0  0  0  0  0  0  0  0  0  0
    2.5848    0.9816    0.4182 C   0  0  0  0  0  0  0  0  0  0  0  0
    3.0363   -1.3430   -0.0504 C   0  0  0  0  0  0  0  0  0  0  0  0
    3.4842   -0.0813    0.3292 C   0  0  0  0  0  0  0  0  0  0  0  0
  1  2  1  0  0  0  0
  3  2  1  0  0  0  0
  4  3  1  0  0  0  0
  4  5  2  0  0  0  0
  4  6  1  0  0  0  0
  7  5  1  0  0  0  0
  6  8  2  0  0  0  0
  7  9  1  0  0  0  0
  7 10  2  0  0  0  0
  9  8  1  0  0  0  0
  9 11  2  0  0  0  0
 10 12  1  0  0  0  0
 11 13  1  0  0  0  0
 12 13  2  0  0  0  0
M  END
>  <Name>
2-naphthalen-2-ylethanol

>  <IGC50>
3.49

>  <CAS>
1485-07-0

>  <SET>
ws

>  <Species>
Tetrahymena pyriformis

>  <Test duration>
48h

$$$$

  Mrv1808 07152009202D          

  6  5  0  0  0  0            999 V2000
    0.0000    0.0000    0.0000 C   0  0  0  0  0  0  0  0  0  0  0  0
    0.7290    0.3860    0.0000 C   0  0  0  0  0  0  0  0  0  0  0  0
    1.4582    0.0000    0.0000 C   0  0  0  0  0  0  0  0  0  0  0  0
    2.2302    0.3860    0.0000 C   0  0  0  0  0  0  0  0  0  0  0  0
    2.9592    0.0000    0.0000 C   0  0  0  0  0  0  0  0  0  0  0  0
    3.7312    0.3860    0.0000 Br  0  0  0  0  0  0  0  0  0  0  0  0
  1  2  1  0  0  0  0
  2  3  1  0  0  0  0
  3  4  1  0  0  0  0
  4  5  1  0  0  0  0
  5  6  1  0  0  0  0
M  END
>  <Name>
Pentane, 1-bromo-

>  <IGC50>
3.484

>  <CAS>
110-53-2

>  <SET>
ws

>  <Species>
Tetrahymena pyriformis

>  <Test duration>
48h

$$$$

  Mrv1808 07152009202D          

  9  8  0  0  0  0            999 V2000
    0.0000   -0.4118    0.0000 C   0  0  0  0  0  0  0  0  0  0  0  0
    0.7149    0.0000    0.0000 C   0  0  0  0  0  0  0  0  0  0  0  0
    1.4298   -0.4118    0.0000 C   0  0  0  0  0  0  0  0  0  0  0  0
    2.1447    0.0000    0.0000 C   0  0  0  0  0  0  0  0  0  0  0  0
    2.8595   -0.4118    0.0000 C   0  0  0  0  0  0  0  0  0  0  0  0
    3.5744    0.0000    0.0000 C   0  0  0  0  0  0  0  0  0  0  0  0
    4.2893   -0.4118    0.0000 C   0  0  0  0  0  0  0  0  0  0  0  0
    5.0042    0.0000    0.0000 C   0  0  0  0  0  0  0  0  0  0  0  0
    5.7191   -0.4118    0.0000 O   0  0  0  0  0  0  0  0  0  0  0  0
  1  2  1  0  0  0  0
  2  3  1  0  0  0  0
  3  4  1  0  0  0  0
  4  5  1  0  0  0  0
  5  6  1  0  0  0  0
  6  7  1  0  0  0  0
  7  8  1  0  0  0  0
  8  9  2  0  0  0  0
M  END
>  <Name>
1-Octanal

>  <IGC50>
3.483

>  <CAS>
124-13-0

>  <SET>
ws

>  <Species>
Tetrahymena pyriformis

>  <Test duration>
48h

$$$$

  Mrv1808 07152009202D          

  7  6  0  0  0  0            999 V2000
    2.8609   -0.8261    0.0000 C   0  0  0  0  0  0  0  0  0  0  0  0
    3.5761   -1.2373    0.0000 C   0  0  0  0  0  0  0  0  0  0  0  0
    2.8609    0.0000    0.0000 O   0  0  0  0  0  0  0  0  0  0  0  0
    2.1457   -1.2373    0.0000 O   0  0  0  0  0  0  0  0  0  0  0  0
    1.4305   -0.8261    0.0000 C   0  0  0  0  0  0  0  0  0  0  0  0
    0.7152   -1.2373    0.0000 C   0  0  0  0  0  0  0  0  0  0  0  0
    0.0000   -0.8261    0.0000 C   0  0  0  0  0  0  0  0  0  0  0  0
  1  2  1  0  0  0  0
  1  3  2  0  0  0  0
  1  4  1  0  0  0  0
  4  5  1  0  0  0  0
  5  6  1  0  0  0  0
  6  7  2  0  0  0  0
M  END
>  <Name>
Acetic acid, 2-propenyl ester

>  <IGC50>
3.48

>  <CAS>
591-87-7

>  <SET>
ws

>  <Species>
Tetrahymena pyriformis

>  <Test duration>
48h

$$$$

  Mrv1808 07152009202D          

 12 12  0  0  0  0            999 V2000
    0.8250    0.0000    0.0000 C   0  0  0  0  0  0  0  0  0  0  0  0
    0.8250    0.8250    0.0000 C   0  0  0  0  0  0  0  0  0  0  0  0
    0.8250    1.6500    0.0000 C   0  0  0  0  0  0  0  0  0  0  0  0
    0.0000    0.8250    0.0000 C   0  0  0  0  0  0  0  0  0  0  0  0
    1.6500    0.8250    0.0000 C   0  0  0  0  0  0  0  0  0  0  0  0
    2.0625    1.5262    0.0000 C   0  0  0  0  0  0  0  0  0  0  0  0
    2.0625    0.1238    0.0000 C   0  0  0  0  0  0  0  0  0  0  0  0
    2.8875    1.5262    0.0000 C   0  0  0  0  0  0  0  0  0  0  0  0
    2.8875    0.1238    0.0000 C   0  0  0  0  0  0  0  0  0  0  0  0
    3.3000    0.8250    0.0000 C   0  0  0  0  0  0  0  0  0  0  0  0
    4.1250    0.8250    0.0000 C   0  0  0  0  0  0  0  0  0  0  0  0
    4.5375    1.5262    0.0000 O   0  0  0  0  0  0  0  0  0  0  0  0
  1  2  1  0  0  0  0
  2  3  1  0  0  0  0
  2  4  1  0  0  0  0
  2  5  1  0  0  0  0
  6  5  2  0  0  0  0
  5  7  1  0  0  0  0
  8  6  1  0  0  0  0
  7  9  2  0  0  0  0
 10  8  2  0  0  0  0
  9 10  1  0  0  0  0
 10 11  1  0  0  0  0
 11 12  1  0  0  0  0
M  END
>  <Name>
Benzenemethanol, 4-(1,1-dimethylethyl)-

>  <IGC50>
3.48

>  <CAS>
877-65-6

>  <SET>
ws

>  <Species>
Tetrahymena pyriformis

>  <Test duration>
48h

$$$$

  Mrv1808 07152009203D          

 12 12  0  0  0  0            999 V2000
   -2.1195    0.2161   -0.0004 O   0  0  0  0  0  0  0  0  0  0  0  0
   -1.1248   -0.7233   -0.0008 C   0  0  0  0  0  0  0  0  0  0  0  0
   -3.4667   -0.2682    0.0005 C   0  0  0  0  0  0  0  0  0  0  0  0
   -1.3265   -1.9449   -0.0004 O   0  0  0  0  0  0  0  0  0  0  0  0
    0.1926   -0.1073   -0.0001 C   0  0  0  0  0  0  0  0  0  0  0  0
   -4.4149    0.9120    0.0007 C   0  0  0  0  0  0  0  0  0  0  0  0
    1.3362   -0.9061    0.0005 C   0  0  0  0  0  0  0  0  0  0  0  0
    0.3126    1.2825   -0.0005 C   0  0  0  0  0  0  0  0  0  0  0  0
    2.5997   -0.3150    0.0006 C   0  0  0  0  0  0  0  0  0  0  0  0
    1.5760    1.8735   -0.0003 C   0  0  0  0  0  0  0  0  0  0  0  0
    3.7156   -1.0941    0.0001 O   0  0  0  0  0  0  0  0  0  0  0  0
    2.7195    1.0748    0.0002 C   0  0  0  0  0  0  0  0  0  0  0  0
  1  2  1  0  0  0  0
  1  3  1  0  0  0  0
  4  2  2  0  0  0  0
  5  2  1  0  0  0  0
  3  6  1  0  0  0  0
  5  7  2  0  0  0  0
  5  8  1  0  0  0  0
  7  9  1  0  0  0  0
  8 10  2  0  0  0  0
 11  9  1  0  0  0  0
  9 12  2  0  0  0  0
 10 12  1  0  0  0  0
M  END
>  <Name>
ethyl 3-hydroxybenzoate

>  <IGC50>
3.48

>  <CAS>
7781-98-8

>  <SET>
ws

>  <Species>
Tetrahymena pyriformis

>  <Test duration>
48h

$$$$

  Mrv1808 07152009202D          

  9  9  0  0  0  0            999 V2000
    0.0000    1.2375    0.0000 C   0  0  0  0  0  0  0  0  0  0  0  0
    0.7425    1.6500    0.0000 C   0  0  0  0  0  0  0  0  0  0  0  0
    0.0000    0.4125    0.0000 C   0  0  0  0  0  0  0  0  0  0  0  0
    1.4438    1.2375    0.0000 C   0  0  0  0  0  0  0  0  0  0  0  0
    0.7425    2.4750    0.0000 Br  0  0  0  0  0  0  0  0  0  0  0  0
    0.7425    0.0000    0.0000 C   0  0  0  0  0  0  0  0  0  0  0  0
    1.4438    0.4125    0.0000 C   0  0  0  0  0  0  0  0  0  0  0  0
    2.1449    1.6500    0.0000 C   0  0  0  0  0  0  0  0  0  0  0  0
    2.8875    1.2375    0.0000 O   0  0  0  0  0  0  0  0  0  0  0  0
  1  2  2  0  0  0  0
  3  1  1  0  0  0  0
  2  4  1  0  0  0  0
  2  5  1  0  0  0  0
  6  3  2  0  0  0  0
  4  7  2  0  0  0  0
  4  8  1  0  0  0  0
  7  6  1  0  0  0  0
  8  9  2  0  0  0  0
M  END
>  <Name>
Benzaldehyde, 2-bromo-

>  <IGC50>
3.477

>  <CAS>
6630-33-7

>  <SET>
ws

>  <Species>
Tetrahymena pyriformis

>  <Test duration>
48h

$$$$

  Mrv1808 07152009203D          

 11 12  0  0  0  0            999 V2000
   -3.4573   -0.7366   -0.0006 C   0  0  0  0  0  0  0  0  0  0  0  0
   -2.0632   -0.2087    0.0004 C   0  0  0  0  0  0  0  0  0  0  0  0
   -1.0469   -1.0676    0.0004 N   0  0  0  0  0  0  0  0  0  0  0  0
   -1.8510    1.2051    0.0003 C   0  0  0  0  0  0  0  0  0  0  0  0
    0.2594   -0.5885    0.0002 C   0  0  0  0  0  0  0  0  0  0  0  0
   -0.5787    1.6995    0.0001 C   0  0  0  0  0  0  0  0  0  0  0  0
    0.5237    0.7979    0.0000 C   0  0  0  0  0  0  0  0  0  0  0  0
    1.3371   -1.5165    0.0002 C   0  0  0  0  0  0  0  0  0  0  0  0
    1.8683    1.2463   -0.0002 C   0  0  0  0  0  0  0  0  0  0  0  0
    2.6259   -1.0505   -0.0001 C   0  0  0  0  0  0  0  0  0  0  0  0
    2.8937    0.3374   -0.0003 C   0  0  0  0  0  0  0  0  0  0  0  0
  1  2  1  0  0  0  0
  3  2  2  0  0  0  0
  2  4  1  0  0  0  0
  3  5  1  0  0  0  0
  4  6  2  0  0  0  0
  7  5  1  0  0  0  0
  8  5  2  0  0  0  0
  6  7  1  0  0  0  0
  7  9  2  0  0  0  0
 10  8  1  0  0  0  0
  9 11  1  0  0  0  0
 11 10  2  0  0  0  0
M  END
>  <Name>
Quinoline, 2-methyl-

>  <IGC50>
3.47

>  <CAS>
91-63-4

>  <SET>
ws

>  <Species>
Tetrahymena pyriformis

>  <Test duration>
48h

$$$$

  Mrv1808 07152009202D          

  8  8  0  0  0  0            999 V2000
    0.8250   -0.7161    0.0000 C   0  0  0  0  0  0  0  0  0  0  0  0
    1.2375    0.0000    0.0000 C   0  0  0  0  0  0  0  0  0  0  0  0
    1.2375   -1.4289    0.0000 C   0  0  0  0  0  0  0  0  0  0  0  0
    0.0000   -0.7161    0.0000 C   0  0  0  0  0  0  0  0  0  0  0  0
    2.0625    0.0000    0.0000 C   0  0  0  0  0  0  0  0  0  0  0  0
    2.0625   -1.4289    0.0000 C   0  0  0  0  0  0  0  0  0  0  0  0
    2.4750   -0.7161    0.0000 C   0  0  0  0  0  0  0  0  0  0  0  0
    3.3001   -0.7161    0.0000 Br  0  0  0  0  0  0  0  0  0  0  0  0
  1  2  2  0  0  0  0
  1  3  1  0  0  0  0
  1  4  1  0  0  0  0
  2  5  1  0  0  0  0
  6  3  2  0  0  0  0
  5  7  2  0  0  0  0
  7  6  1  0  0  0  0
  7  8  1  0  0  0  0
M  END
>  <Name>
Benzene, 1-bromo-4-methyl-

>  <IGC50>
3.47

>  <CAS>
106-38-7

>  <SET>
ws

>  <Species>
Tetrahymena pyriformis

>  <Test duration>
48h

$$$$

  Mrv1808 07152009202D          

 11 11  0  0  0  0            999 V2000
    0.0000   -2.1379    0.0000 O   0  0  0  0  0  0  0  0  0  0  0  0
    0.4113   -1.4265    0.0000 N   0  3  0  0  0  0  0  0  0  0  0  0
    1.2338   -1.4265    0.0000 C   0  0  0  0  0  0  0  0  0  0  0  0
    0.0000   -0.7114    0.0000 O   0  5  0  0  0  0  0  0  0  0  0  0
    1.6451   -0.7114    0.0000 C   0  0  0  0  0  0  0  0  0  0  0  0
    1.6451   -2.1379    0.0000 C   0  0  0  0  0  0  0  0  0  0  0  0
    2.4714   -0.7114    0.0000 C   0  0  0  0  0  0  0  0  0  0  0  0
    2.4714   -2.1379    0.0000 C   0  0  0  0  0  0  0  0  0  0  0  0
    2.8827   -1.4265    0.0000 C   0  0  0  0  0  0  0  0  0  0  0  0
    2.8827    0.0000    0.0000 N   0  0  0  0  0  0  0  0  0  0  0  0
    3.7052   -1.4265    0.0000 O   0  0  0  0  0  0  0  0  0  0  0  0
  1  2  2  0  0  0  0
  2  3  1  0  0  0  0
  2  4  1  0  0  0  0
  3  5  2  0  0  0  0
  3  6  1  0  0  0  0
  5  7  1  0  0  0  0
  8  6  2  0  0  0  0
  7  9  2  0  0  0  0
  7 10  1  0  0  0  0
  9  8  1  0  0  0  0
  9 11  1  0  0  0  0
M  CHG  2   2   1   4  -1
M  END
>  <Name>
Phenol, 2-amino-4-nitro-

>  <IGC50>
3.47

>  <CAS>
99-57-0

>  <SET>
ws

>  <Species>
Tetrahymena pyriformis

>  <Test duration>
48h

$$$$

  Mrv1808 07152009202D          

 10 10  0  0  0  0            999 V2000
    3.7125    1.4438    0.0000 C   0  0  0  0  0  0  0  0  0  0  0  0
    3.3000    0.7012    0.0000 C   0  0  0  0  0  0  0  0  0  0  0  0
    3.7125    0.0000    0.0000 C   0  0  0  0  0  0  0  0  0  0  0  0
    2.4750    0.7012    0.0000 C   0  0  0  0  0  0  0  0  0  0  0  0
    2.0625    0.0000    0.0000 C   0  0  0  0  0  0  0  0  0  0  0  0
    2.0625    1.4438    0.0000 C   0  0  0  0  0  0  0  0  0  0  0  0
    1.2375    0.0000    0.0000 C   0  0  0  0  0  0  0  0  0  0  0  0
    1.2375    1.4438    0.0000 C   0  0  0  0  0  0  0  0  0  0  0  0
    0.8250    0.7012    0.0000 C   0  0  0  0  0  0  0  0  0  0  0  0
    0.0000    0.7012    0.0000 O   0  0  0  0  0  0  0  0  0  0  0  0
  1  2  1  0  0  0  0
  2  3  1  0  0  0  0
  2  4  1  0  0  0  0
  5  4  2  0  0  0  0
  4  6  1  0  0  0  0
  7  5  1  0  0  0  0
  6  8  2  0  0  0  0
  9  7  2  0  0  0  0
  8  9  1  0  0  0  0
 10  9  1  0  0  0  0
M  END
>  <Name>
Phenol, 4-(1-methylethyl)-

>  <IGC50>
3.47

>  <CAS>
99-89-8

>  <SET>
ws

>  <Species>
Tetrahymena pyriformis

>  <Test duration>
48h

$$$$

  Mrv1808 07152009202D          

 12 13  0  0  0  0            999 V2000
    2.5098    0.7111    0.0000 C   0  0  0  0  0  0  0  0  0  0  0  0
    2.9281    1.4222    0.0000 C   0  0  0  0  0  0  0  0  0  0  0  0
    2.9281    0.0000    0.0000 C   0  0  0  0  0  0  0  0  0  0  0  0
    1.6732    0.7111    0.0000 C   0  0  0  0  0  0  0  0  0  0  0  0
    3.7647    1.4222    0.0000 C   0  0  0  0  0  0  0  0  0  0  0  0
    3.7647    0.0000    0.0000 C   0  0  0  0  0  0  0  0  0  0  0  0
    1.2549    0.0000    0.0000 C   0  0  0  0  0  0  0  0  0  0  0  0
    1.2549    1.4222    0.0000 C   0  0  0  0  0  0  0  0  0  0  0  0
    4.1830    0.7111    0.0000 C   0  0  0  0  0  0  0  0  0  0  0  0
    0.4183    0.0000    0.0000 C   0  0  0  0  0  0  0  0  0  0  0  0
    0.4183    1.4222    0.0000 N   0  0  0  0  0  0  0  0  0  0  0  0
    0.0000    0.7111    0.0000 C   0  0  0  0  0  0  0  0  0  0  0  0
  2  1  2  0  0  0  0
  1  3  1  0  0  0  0
  1  4  1  0  0  0  0
  5  2  1  0  0  0  0
  3  6  2  0  0  0  0
  7  4  2  0  0  0  0
  4  8  1  0  0  0  0
  9  5  2  0  0  0  0
  6  9  1  0  0  0  0
 10  7  1  0  0  0  0
  8 11  2  0  0  0  0
 12 10  2  0  0  0  0
 11 12  1  0  0  0  0
M  END
>  <Name>
Pyridine, 3-phenyl-

>  <IGC50>
3.47

>  <CAS>
1008-88-4

>  <SET>
ws

>  <Species>
Tetrahymena pyriformis

>  <Test duration>
48h

$$$$

  Mrv1808 07152009203D          

  9  9  0  0  0  0            999 V2000
   -2.3718   -0.7533    0.0001 F   0  0  0  0  0  0  0  0  0  0  0  0
   -1.2080   -0.0887    0.0002 C   0  0  0  0  0  0  0  0  0  0  0  0
    0.0001   -0.7862    0.0002 C   0  0  0  0  0  0  0  0  0  0  0  0
   -1.2081    1.3062    0.0000 C   0  0  0  0  0  0  0  0  0  0  0  0
    0.0006   -2.1472   -0.0004 O   0  0  0  0  0  0  0  0  0  0  0  0
    1.2080   -0.0885    0.0000 C   0  0  0  0  0  0  0  0  0  0  0  0
   -0.0003    2.0038   -0.0001 C   0  0  0  0  0  0  0  0  0  0  0  0
    2.3717   -0.7526    0.0003 F   0  0  0  0  0  0  0  0  0  0  0  0
    1.2077    1.3065   -0.0002 C   0  0  0  0  0  0  0  0  0  0  0  0
  1  2  1  0  0  0  0
  3  2  2  0  0  0  0
  2  4  1  0  0  0  0
  5  3  1  0  0  0  0
  3  6  1  0  0  0  0
  4  7  2  0  0  0  0
  8  6  1  0  0  0  0
  6  9  2  0  0  0  0
  9  7  1  0  0  0  0
M  END
>  <Name>
2,6-difluorophenol

>  <IGC50>
3.47

>  <CAS>
28177-48-2

>  <SET>
ws

>  <Species>
Tetrahymena pyriformis

>  <Test duration>
48h

$$$$

  Mrv1808 07152009202D          

 10 10  0  0  0  0            999 V2000
    0.0000   -1.4289    0.0000 N   0  0  0  0  0  0  0  0  0  0  0  0
    0.8250   -1.4289    0.0000 C   0  0  0  0  0  0  0  0  0  0  0  0
    1.6500   -1.4289    0.0000 C   0  0  0  0  0  0  0  0  0  0  0  0
    2.0625   -0.7128    0.0000 C   0  0  0  0  0  0  0  0  0  0  0  0
    2.0625   -2.1450    0.0000 C   0  0  0  0  0  0  0  0  0  0  0  0
    1.6500    0.0000    0.0000 Cl  0  0  0  0  0  0  0  0  0  0  0  0
    2.8875   -0.7128    0.0000 C   0  0  0  0  0  0  0  0  0  0  0  0
    2.8875   -2.1450    0.0000 C   0  0  0  0  0  0  0  0  0  0  0  0
    1.6500   -2.8578    0.0000 C   0  0  0  0  0  0  0  0  0  0  0  0
    3.3000   -1.4289    0.0000 C   0  0  0  0  0  0  0  0  0  0  0  0
  1  2  3  0  0  0  0
  2  3  1  0  0  0  0
  3  4  2  0  0  0  0
  3  5  1  0  0  0  0
  4  6  1  0  0  0  0
  4  7  1  0  0  0  0
  8  5  2  0  0  0  0
  5  9  1  0  0  0  0
  7 10  2  0  0  0  0
 10  8  1  0  0  0  0
M  END
>  <Name>
Benzonitrile, 2-chloro-6-methyl-

>  <IGC50>
3.46

>  <CAS>
6575-09-3

>  <SET>
ws

>  <Species>
Tetrahymena pyriformis

>  <Test duration>
48h

$$$$

  Mrv1808 07152009202D          

 13 13  0  0  0  0            999 V2000
    2.0496    1.4641    0.0000 C   0  0  0  0  0  0  0  0  0  0  0  0
    1.2130    1.4641    0.0000 C   0  0  0  0  0  0  0  0  0  0  0  0
    2.4679    2.1333    0.0000 C   0  0  0  0  0  0  0  0  0  0  0  0
    2.4679    0.7111    0.0000 N   0  0  0  0  0  0  0  0  0  0  0  0
    0.7948    2.1333    0.0000 C   0  0  0  0  0  0  0  0  0  0  0  0
    0.7948    0.7111    0.0000 N   0  0  0  0  0  0  0  0  0  0  0  0
    2.0496    2.8444    0.0000 C   0  0  0  0  0  0  0  0  0  0  0  0
    3.3046    0.7111    0.0000 O   0  0  0  0  0  0  0  0  0  0  0  0
    2.0496    0.0000    0.0000 O   0  0  0  0  0  0  0  0  0  0  0  0
    1.2130    2.8444    0.0000 C   0  0  0  0  0  0  0  0  0  0  0  0
    0.0000    2.1333    0.0000 O   0  0  0  0  0  0  0  0  0  0  0  0
    1.2130    0.0000    0.0000 O   0  0  0  0  0  0  0  0  0  0  0  0
    0.0000    0.7111    0.0000 O   0  0  0  0  0  0  0  0  0  0  0  0
  2  1  2  0  0  0  0
  1  3  1  0  0  0  0
  1  4  1  0  0  0  0
  5  2  1  0  0  0  0
  2  6  1  0  0  0  0
  3  7  2  0  0  0  0
  4  8  2  0  0  0  0
  4  9  2  0  0  0  0
 10  5  2  0  0  0  0
  5 11  1  0  0  0  0
  6 12  2  0  0  0  0
  6 13  2  0  0  0  0
  7 10  1  0  0  0  0
M  END
>  <Name>
Phenol, 2,3-dinitro-

>  <IGC50>
3.46

>  <CAS>
66-56-8

>  <SET>
ws

>  <Species>
Tetrahymena pyriformis

>  <Test duration>
48h

$$$$

  Mrv1808 07152009202D          

 13 14  0  0  0  0            999 V2000
    0.0000   -2.1450    0.0000 O   0  0  0  0  0  0  0  0  0  0  0  0
    0.4125   -1.4314    0.0000 N   0  3  0  0  0  0  0  0  0  0  0  0
    1.2375   -1.4314    0.0000 C   0  0  0  0  0  0  0  0  0  0  0  0
    0.0000   -0.7177    0.0000 O   0  5  0  0  0  0  0  0  0  0  0  0
    1.6501   -0.7177    0.0000 C   0  0  0  0  0  0  0  0  0  0  0  0
    1.6501   -2.1450    0.0000 C   0  0  0  0  0  0  0  0  0  0  0  0
    2.4751   -0.7177    0.0000 C   0  0  0  0  0  0  0  0  0  0  0  0
    2.4751   -2.1450    0.0000 C   0  0  0  0  0  0  0  0  0  0  0  0
    2.8876    0.0000    0.0000 C   0  0  0  0  0  0  0  0  0  0  0  0
    2.8876   -1.4314    0.0000 C   0  0  0  0  0  0  0  0  0  0  0  0
    3.7126    0.0000    0.0000 C   0  0  0  0  0  0  0  0  0  0  0  0
    3.7126   -1.4314    0.0000 N   0  0  0  0  0  0  0  0  0  0  0  0
    4.1251   -0.7177    0.0000 C   0  0  0  0  0  0  0  0  0  0  0  0
  1  2  2  0  0  0  0
  2  3  1  0  0  0  0
  2  4  1  0  0  0  0
  3  5  2  0  0  0  0
  3  6  1  0  0  0  0
  5  7  1  0  0  0  0
  8  6  2  0  0  0  0
  7  9  2  0  0  0  0
  7 10  1  0  0  0  0
 10  8  1  0  0  0  0
  9 11  1  0  0  0  0
 12 10  2  0  0  0  0
 11 13  2  0  0  0  0
 13 12  1  0  0  0  0
M  CHG  2   2   1   4  -1
M  END
>  <Name>
Quinoline, 6-nitro-

>  <IGC50>
3.46

>  <CAS>
613-50-3

>  <SET>
ws

>  <Species>
Tetrahymena pyriformis

>  <Test duration>
48h

$$$$

  Mrv1808 07152009202D          

  9  8  0  0  0  0            999 V2000
    1.4640    1.2549    0.0000 C   0  0  0  0  0  0  0  0  0  0  0  0
    2.1751    0.8366    0.0000 C   0  0  0  0  0  0  0  0  0  0  0  0
    0.7529    0.8366    0.0000 C   0  0  0  0  0  0  0  0  0  0  0  0
    2.9280    1.2549    0.0000 C   0  0  0  0  0  0  0  0  0  0  0  0
    0.7529    0.0000    0.0000 Cl  0  0  0  0  0  0  0  0  0  0  0  0
    0.0000    1.2549    0.0000 O   0  0  0  0  0  0  0  0  0  0  0  0
    3.6391    0.8366    0.0000 C   0  0  0  0  0  0  0  0  0  0  0  0
    4.3502    1.2549    0.0000 C   0  0  0  0  0  0  0  0  0  0  0  0
    5.1031    0.8366    0.0000 C   0  0  0  0  0  0  0  0  0  0  0  0
  1  2  1  0  0  0  0
  1  3  1  0  0  0  0
  2  4  1  0  0  0  0
  3  5  1  0  0  0  0
  3  6  2  0  0  0  0
  4  7  1  0  0  0  0
  7  8  1  0  0  0  0
  8  9  1  0  0  0  0
M  END
>  <Name>
Heptanoyl chloride

>  <IGC50>
3.459

>  <CAS>
2528-61-2

>  <SET>
ws

>  <Species>
Tetrahymena pyriformis

>  <Test duration>
48h

$$$$

  Mrv1808 07152009202D          

 11 11  0  0  0  0            999 V2000
   -1.6336    0.4440    0.0000 C   0  0  0  0  0  0  0  0  0  0  0  0
   -0.9279   -0.0122    0.0000 C   0  0  0  0  0  0  0  0  0  0  0  0
   -2.2092    0.8131    0.0000 N   0  0  0  0  0  0  0  0  0  0  0  0
   -0.1978    0.3688    0.0000 C   0  0  0  0  0  0  0  0  0  0  0  0
   -0.9753   -0.8358    0.0000 C   0  0  0  0  0  0  0  0  0  0  0  0
    0.4925   -0.0834    0.0000 C   0  0  0  0  0  0  0  0  0  0  0  0
   -0.2850   -1.2779    0.0000 C   0  0  0  0  0  0  0  0  0  0  0  0
    0.4469   -0.9080    0.0000 C   0  0  0  0  0  0  0  0  0  0  0  0
    1.2830    0.3168    0.0000 N   0  3  0  0  0  0  0  0  0  0  0  0
    1.8771   -0.0832    0.0000 O   0  0  0  0  0  0  0  0  0  0  0  0
    1.3125    1.0322    0.0000 O   0  5  0  0  0  0  0  0  0  0  0  0
  1  2  1  0  0  0  0
  1  3  3  0  0  0  0
  2  4  1  0  0  0  0
  2  5  2  0  0  0  0
  4  6  2  0  0  0  0
  7  5  1  0  0  0  0
  6  8  1  0  0  0  0
  6  9  1  0  0  0  0
  8  7  2  0  0  0  0
  9 10  2  0  0  0  0
  9 11  1  0  0  0  0
M  CHG  2   9   1  11  -1
M  END
>  <Name>
Benzonitrile, 3-nitro-

>  <IGC50>
3.45

>  <CAS>
619-24-9

>  <SET>
ws

>  <Species>
Tetrahymena pyriformis

>  <Test duration>
48h

$$$$

  Mrv1808 07152009203D          

 10 10  0  0  0  0            999 V2000
   -2.2880    0.0710    0.0009 O   0  0  0  0  0  0  0  0  0  0  0  0
   -0.9295   -0.0308   -0.0003 C   0  0  0  0  0  0  0  0  0  0  0  0
   -3.0292   -1.1475    0.0000 C   0  0  0  0  0  0  0  0  0  0  0  0
   -0.1328    1.1141    0.0004 C   0  0  0  0  0  0  0  0  0  0  0  0
   -0.3364   -1.2933   -0.0006 C   0  0  0  0  0  0  0  0  0  0  0  0
   -0.7005    2.3524   -0.0010 O   0  0  0  0  0  0  0  0  0  0  0  0
    1.2571    0.9966    0.0008 C   0  0  0  0  0  0  0  0  0  0  0  0
    1.0535   -1.4108   -0.0003 C   0  0  0  0  0  0  0  0  0  0  0  0
    1.8503   -0.2659    0.0004 C   0  0  0  0  0  0  0  0  0  0  0  0
    3.2556   -0.3858   -0.0001 N   0  0  0  0  0  0  0  0  0  0  0  0
  1  2  1  0  0  0  0
  1  3  1  0  0  0  0
  2  4  2  0  0  0  0
  2  5  1  0  0  0  0
  6  4  1  0  0  0  0
  4  7  1  0  0  0  0
  5  8  2  0  0  0  0
  9  7  2  0  0  0  0
  9  8  1  0  0  0  0
 10  9  1  0  0  0  0
M  END
>  <Name>
5-amino-2-methoxyphenol

>  <IGC50>
3.45

>  <CAS>
1687-53-2

>  <SET>
ws

>  <Species>
Tetrahymena pyriformis

>  <Test duration>
48h

$$$$

  Mrv1808 07152009203D          

 12 12  0  0  0  0            999 V2000
    2.4849   -1.7763    0.0019 O   0  5  0  0  0  0  0  0  0  0  0  0
    2.1865   -0.5590    0.0005 N   0  3  0  0  0  0  0  0  0  0  0  0
    3.0562    0.3433   -0.0002 O   0  0  0  0  0  0  0  0  0  0  0  0
    0.8124   -0.1887   -0.0010 C   0  0  0  0  0  0  0  0  0  0  0  0
    0.4265    1.1518   -0.0009 C   0  0  0  0  0  0  0  0  0  0  0  0
   -0.1557   -1.1931   -0.0008 C   0  0  0  0  0  0  0  0  0  0  0  0
    1.3879    2.1878    0.0001 N   0  0  0  0  0  0  0  0  0  0  0  0
   -0.9272    1.4880   -0.0005 C   0  0  0  0  0  0  0  0  0  0  0  0
   -1.5095   -0.8568   -0.0004 C   0  0  0  0  0  0  0  0  0  0  0  0
   -1.8952    0.4837   -0.0002 C   0  0  0  0  0  0  0  0  0  0  0  0
   -2.5286   -1.9486   -0.0009 C   0  0  0  0  0  0  0  0  0  0  0  0
   -3.3382    0.8680    0.0024 C   0  0  0  0  0  0  0  0  0  0  0  0
  1  2  1  0  0  0  0
  3  2  2  0  0  0  0
  2  4  1  0  0  0  0
  4  5  2  0  0  0  0
  4  6  1  0  0  0  0
  7  5  1  0  0  0  0
  5  8  1  0  0  0  0
  9  6  2  0  0  0  0
 10  8  2  0  0  0  0
  9 10  1  0  0  0  0
  9 11  1  0  0  0  0
 10 12  1  0  0  0  0
M  CHG  2   1  -1   2   1
M  END
>  <Name>
4,5-dimethyl-2-nitroaniline

>  <IGC50>
3.45

>  <CAS>
6972-71-0

>  <SET>
ws

>  <Species>
Tetrahymena pyriformis

>  <Test duration>
48h

$$$$

  Mrv1808 07152009202D          

  9  9  0  0  0  0            999 V2000
    1.2130    2.1333    0.0000 C   0  0  0  0  0  0  0  0  0  0  0  0
    0.8366    1.4222    0.0000 C   0  0  0  0  0  0  0  0  0  0  0  0
    2.0496    2.1333    0.0000 C   0  0  0  0  0  0  0  0  0  0  0  0
    1.2130    0.7111    0.0000 C   0  0  0  0  0  0  0  0  0  0  0  0
    0.0000    1.4222    0.0000 O   0  0  0  0  0  0  0  0  0  0  0  0
    2.4679    1.4222    0.0000 C   0  0  0  0  0  0  0  0  0  0  0  0
    2.0496    0.7111    0.0000 C   0  0  0  0  0  0  0  0  0  0  0  0
    0.8366    0.0000    0.0000 O   0  0  0  0  0  0  0  0  0  0  0  0
    3.3045    1.4222    0.0000 O   0  0  0  0  0  0  0  0  0  0  0  0
  1  2  2  0  0  0  0
  3  1  1  0  0  0  0
  2  4  1  0  0  0  0
  2  5  1  0  0  0  0
  6  3  2  0  0  0  0
  4  7  2  0  0  0  0
  4  8  1  0  0  0  0
  7  6  1  0  0  0  0
  6  9  1  0  0  0  0
M  END
>  <Name>
1,2,4-Trihydroxybenzene

>  <IGC50>
3.44

>  <CAS>
533-73-3

>  <SET>
ws

>  <Species>
Tetrahymena pyriformis

>  <Test duration>
48h

$$$$

  Mrv1808 07152009202D          

 10 10  0  0  0  0            999 V2000
    1.4286   -0.4107    0.0000 C   0  0  0  0  0  0  0  0  0  0  0  0
    0.7143    0.0000    0.0000 N   0  0  0  0  0  0  0  0  0  0  0  0
    2.1429    0.0000    0.0000 C   0  0  0  0  0  0  0  0  0  0  0  0
    1.4286   -1.2357    0.0000 C   0  0  0  0  0  0  0  0  0  0  0  0
    2.8572   -0.4107    0.0000 C   0  0  0  0  0  0  0  0  0  0  0  0
    2.1429   -1.6500    0.0000 C   0  0  0  0  0  0  0  0  0  0  0  0
    0.7143   -1.6500    0.0000 C   0  0  0  0  0  0  0  0  0  0  0  0
    2.8572   -1.2357    0.0000 C   0  0  0  0  0  0  0  0  0  0  0  0
    0.0000   -2.0607    0.0000 N   0  0  0  0  0  0  0  0  0  0  0  0
    3.5715   -1.6500    0.0000 Cl  0  0  0  0  0  0  0  0  0  0  0  0
  1  2  1  0  0  0  0
  1  3  2  0  0  0  0
  1  4  1  0  0  0  0
  3  5  1  0  0  0  0
  6  4  2  0  0  0  0
  4  7  1  0  0  0  0
  5  8  2  0  0  0  0
  8  6  1  0  0  0  0
  7  9  3  0  0  0  0
  8 10  1  0  0  0  0
M  END
>  <Name>
Benzonitrile, 2-amino-5-chloro-

>  <IGC50>
3.44

>  <CAS>
5922-60-1

>  <SET>
ws

>  <Species>
Tetrahymena pyriformis

>  <Test duration>
48h

$$$$

  Mrv1808 07152009202D          

 11 11  0  0  0  0            999 V2000
    1.6731    1.4640    0.0000 C   0  0  0  0  0  0  0  0  0  0  0  0
    1.2549    0.7529    0.0000 C   0  0  0  0  0  0  0  0  0  0  0  0
    2.5096    1.4640    0.0000 C   0  0  0  0  0  0  0  0  0  0  0  0
    1.6731    0.0418    0.0000 C   0  0  0  0  0  0  0  0  0  0  0  0
    0.4183    0.7529    0.0000 N   0  0  0  0  0  0  0  0  0  0  0  0
    2.9279    0.7529    0.0000 C   0  0  0  0  0  0  0  0  0  0  0  0
    2.5096    0.0000    0.0000 C   0  0  0  0  0  0  0  0  0  0  0  0
    0.0000    0.0418    0.0000 O   0  0  0  0  0  0  0  0  0  0  0  0
    0.0000    1.4640    0.0000 O   0  0  0  0  0  0  0  0  0  0  0  0
    3.7645    0.7529    0.0000 C   0  0  0  0  0  0  0  0  0  0  0  0
    4.1828    1.4640    0.0000 C   0  0  0  0  0  0  0  0  0  0  0  0
  1  2  2  0  0  0  0
  3  1  1  0  0  0  0
  2  4  1  0  0  0  0
  2  5  1  0  0  0  0
  6  3  2  0  0  0  0
  4  7  2  0  0  0  0
  5  8  2  0  0  0  0
  5  9  2  0  0  0  0
  7  6  1  0  0  0  0
  6 10  1  0  0  0  0
 10 11  1  0  0  0  0
M  END
>  <Name>
Benzene, 1-ethyl-4-nitro-

>  <IGC50>
3.43

>  <CAS>
100-12-9

>  <SET>
ws

>  <Species>
Tetrahymena pyriformis

>  <Test duration>
48h

$$$$

  Mrv1808 07152009202D          

 17 17  0  0  0  0            999 V2000
    0.0000   -0.8251    0.0000 C   0  0  0  0  0  0  0  0  0  0  0  0
    0.7151   -1.2400    0.0000 O   0  0  0  0  0  0  0  0  0  0  0  0
    1.4300   -0.8251    0.0000 C   0  0  0  0  0  0  0  0  0  0  0  0
    1.4300    0.0000    0.0000 O   0  0  0  0  0  0  0  0  0  0  0  0
    2.1451   -1.2400    0.0000 C   0  0  0  0  0  0  0  0  0  0  0  0
    2.8551   -0.8251    0.0000 C   0  0  0  0  0  0  0  0  0  0  0  0
    2.1451   -2.0651    0.0000 C   0  0  0  0  0  0  0  0  0  0  0  0
    3.5702   -1.2400    0.0000 C   0  0  0  0  0  0  0  0  0  0  0  0
    2.8551   -2.4751    0.0000 C   0  0  0  0  0  0  0  0  0  0  0  0
    1.4300   -2.4751    0.0000 N   0  3  0  0  0  0  0  0  0  0  0  0
    3.5702   -2.0651    0.0000 C   0  0  0  0  0  0  0  0  0  0  0  0
    0.7151   -2.0651    0.0000 O   0  5  0  0  0  0  0  0  0  0  0  0
    1.4300   -3.3001    0.0000 O   0  0  0  0  0  0  0  0  0  0  0  0
    4.2852   -2.4751    0.0000 C   0  0  0  0  0  0  0  0  0  0  0  0
    4.2852   -3.3001    0.0000 O   0  0  0  0  0  0  0  0  0  0  0  0
    5.0002   -2.0651    0.0000 O   0  0  0  0  0  0  0  0  0  0  0  0
    5.0002   -1.2400    0.0000 C   0  0  0  0  0  0  0  0  0  0  0  0
  1  2  1  0  0  0  0
  2  3  1  0  0  0  0
  3  4  2  0  0  0  0
  3  5  1  0  0  0  0
  5  6  2  0  0  0  0
  5  7  1  0  0  0  0
  6  8  1  0  0  0  0
  9  7  2  0  0  0  0
  7 10  1  0  0  0  0
  8 11  2  0  0  0  0
 11  9  1  0  0  0  0
 10 12  1  0  0  0  0
 10 13  2  0  0  0  0
 11 14  1  0  0  0  0
 14 15  2  0  0  0  0
 14 16  1  0  0  0  0
 16 17  1  0  0  0  0
M  CHG  2  10   1  12  -1
M  END
>  <Name>
1,4-Benzenedicarboxylic acid, 2-nitro-, dimethyl ester

>  <IGC50>
3.43

>  <CAS>
5292-45-5

>  <SET>
ws

>  <Species>
Tetrahymena pyriformis

>  <Test duration>
48h

$$$$

  Mrv1808 07152009203D          

 12 13  0  0  0  0            999 V2000
    0.7822   -0.2217    0.4229 C   0  0  0  0  0  0  0  0  0  0  0  0
    1.0762   -1.5631    0.3461 C   0  0  0  0  0  0  0  0  0  0  0  0
   -0.5558    0.2254    0.2001 C   0  0  0  0  0  0  0  0  0  0  0  0
    1.8682    0.7392    0.7481 C   0  0  0  0  0  0  0  0  0  0  0  0
    0.0723   -2.5102    0.0508 C   0  0  0  0  0  0  0  0  0  0  0  0
   -1.5549   -0.7279   -0.0917 C   0  0  0  0  0  0  0  0  0  0  0  0
   -0.9217    1.5985    0.2623 C   0  0  0  0  0  0  0  0  0  0  0  0
    3.1487    0.6329   -0.4913 Cl  0  0  0  0  0  0  0  0  0  0  0  0
   -1.2173   -2.1056   -0.1629 C   0  0  0  0  0  0  0  0  0  0  0  0
   -2.8919   -0.2971   -0.3131 C   0  0  0  0  0  0  0  0  0  0  0  0
   -2.2140    1.9894    0.0449 C   0  0  0  0  0  0  0  0  0  0  0  0
   -3.2123    1.0308   -0.2456 C   0  0  0  0  0  0  0  0  0  0  0  0
  1  2  1  0  0  0  0
  1  3  2  0  0  0  0
  1  4  1  0  0  0  0
  2  5  2  0  0  0  0
  6  3  1  0  0  0  0
  7  3  1  0  0  0  0
  4  8  1  0  0  0  0
  5  9  1  0  0  0  0
  9  6  2  0  0  0  0
  6 10  1  0  0  0  0
 11  7  2  0  0  0  0
 10 12  2  0  0  0  0
 12 11  1  0  0  0  0
M  END
>  <Name>
Naphthalene, 1-(chloromethyl)-

>  <IGC50>
3.43

>  <CAS>
86-52-2

>  <SET>
ws

>  <Species>
Tetrahymena pyriformis

>  <Test duration>
48h

$$$$

  Mrv1808 07152009203D          

 12 13  0  0  0  0            999 V2000
   -1.2320    0.0892    0.0000 C   0  0  0  0  0  0  0  0  0  0  0  0
   -1.7350   -1.1913   -0.0001 C   0  0  0  0  0  0  0  0  0  0  0  0
    0.1827    0.2961    0.0000 C   0  0  0  0  0  0  0  0  0  0  0  0
   -2.1455    1.2593    0.0000 C   0  0  0  0  0  0  0  0  0  0  0  0
   -0.8721   -2.3095    0.0000 C   0  0  0  0  0  0  0  0  0  0  0  0
    1.0382   -0.8263    0.0000 C   0  0  0  0  0  0  0  0  0  0  0  0
    0.7641    1.5940    0.0000 C   0  0  0  0  0  0  0  0  0  0  0  0
   -3.3533    1.1714    0.0001 O   0  0  0  0  0  0  0  0  0  0  0  0
    0.4847   -2.1350    0.0000 C   0  0  0  0  0  0  0  0  0  0  0  0
    2.4470   -0.6365    0.0000 C   0  0  0  0  0  0  0  0  0  0  0  0
    2.1230    1.7527    0.0000 C   0  0  0  0  0  0  0  0  0  0  0  0
    2.9758    0.6252    0.0000 C   0  0  0  0  0  0  0  0  0  0  0  0
  1  2  2  0  0  0  0
  1  3  1  0  0  0  0
  1  4  1  0  0  0  0
  2  5  1  0  0  0  0
  6  3  1  0  0  0  0
  7  3  2  0  0  0  0
  4  8  2  0  0  0  0
  5  9  2  0  0  0  0
  9  6  1  0  0  0  0
  6 10  2  0  0  0  0
 11  7  1  0  0  0  0
 10 12  1  0  0  0  0
 12 11  2  0  0  0  0
M  END
>  <Name>
1-Naphthalenecarboxaldehyde

>  <IGC50>
3.423

>  <CAS>
66-77-3

>  <SET>
ws

>  <Species>
Tetrahymena pyriformis

>  <Test duration>
48h

$$$$

  Mrv1808 07152009202D          

  9  9  0  0  0  0            999 V2000
    2.8846   -2.1404    0.0000 O   0  0  0  0  0  0  0  0  0  0  0  0
    2.4722   -1.4279    0.0000 C   0  0  0  0  0  0  0  0  0  0  0  0
    1.6472   -1.4279    0.0000 C   0  0  0  0  0  0  0  0  0  0  0  0
    1.2375   -2.1404    0.0000 C   0  0  0  0  0  0  0  0  0  0  0  0
    1.2375   -0.7125    0.0000 C   0  0  0  0  0  0  0  0  0  0  0  0
    0.4125   -2.1404    0.0000 C   0  0  0  0  0  0  0  0  0  0  0  0
    0.4125   -0.7125    0.0000 C   0  0  0  0  0  0  0  0  0  0  0  0
    1.6472    0.0000    0.0000 O   0  0  0  0  0  0  0  0  0  0  0  0
    0.0000   -1.4279    0.0000 C   0  0  0  0  0  0  0  0  0  0  0  0
  1  2  2  0  0  0  0
  2  3  1  0  0  0  0
  3  4  2  0  0  0  0
  3  5  1  0  0  0  0
  4  6  1  0  0  0  0
  7  5  2  0  0  0  0
  5  8  1  0  0  0  0
  6  9  2  0  0  0  0
  9  7  1  0  0  0  0
M  END
>  <Name>
Benzaldehyde, 2-hydroxy-

>  <IGC50>
3.42

>  <CAS>
90-02-8

>  <SET>
ws

>  <Species>
Tetrahymena pyriformis

>  <Test duration>
48h

$$$$

  Mrv1808 07152009202D          

 12 12  0  0  0  0            999 V2000
    4.2893    0.0000    0.0000 O   0  0  0  0  0  0  0  0  0  0  0  0
    3.5735   -0.4154    0.0000 C   0  0  0  0  0  0  0  0  0  0  0  0
    3.5735   -1.2413    0.0000 C   0  0  0  0  0  0  0  0  0  0  0  0
    2.8578    0.0000    0.0000 C   0  0  0  0  0  0  0  0  0  0  0  0
    2.8578   -1.6516    0.0000 C   0  0  0  0  0  0  0  0  0  0  0  0
    4.2893   -1.6516    0.0000 O   0  0  0  0  0  0  0  0  0  0  0  0
    2.1472   -0.4154    0.0000 C   0  0  0  0  0  0  0  0  0  0  0  0
    2.1472   -1.2413    0.0000 C   0  0  0  0  0  0  0  0  0  0  0  0
    5.0050   -1.2413    0.0000 C   0  0  0  0  0  0  0  0  0  0  0  0
    1.4314   -1.6516    0.0000 C   0  0  0  0  0  0  0  0  0  0  0  0
    0.7157   -1.2413    0.0000 C   0  0  0  0  0  0  0  0  0  0  0  0
    0.0000   -1.6516    0.0000 C   0  0  0  0  0  0  0  0  0  0  0  0
  1  2  1  0  0  0  0
  2  3  2  0  0  0  0
  2  4  1  0  0  0  0
  3  5  1  0  0  0  0
  3  6  1  0  0  0  0
  7  4  2  0  0  0  0
  5  8  2  0  0  0  0
  6  9  1  0  0  0  0
  8  7  1  0  0  0  0
  8 10  1  0  0  0  0
 10 11  1  0  0  0  0
 11 12  2  0  0  0  0
M  END
>  <Name>
Phenol, 2-methoxy-4-(2-propenyl)-

>  <IGC50>
3.42

>  <CAS>
97-53-0

>  <SET>
ws

>  <Species>
Tetrahymena pyriformis

>  <Test duration>
48h

$$$$

  Mrv1808 07152009202D          

 10 10  0  0  0  0            999 V2000
    0.0000    0.0000    0.0000 C   0  0  0  0  0  0  0  0  0  0  0  0
    0.4128   -0.7131    0.0000 C   0  0  0  0  0  0  0  0  0  0  0  0
    1.2385   -0.7131    0.0000 C   0  0  0  0  0  0  0  0  0  0  0  0
    0.0000   -1.4291    0.0000 C   0  0  0  0  0  0  0  0  0  0  0  0
    1.6484   -1.4291    0.0000 C   0  0  0  0  0  0  0  0  0  0  0  0
    0.4128   -2.1421    0.0000 C   0  0  0  0  0  0  0  0  0  0  0  0
    2.4741   -1.4291    0.0000 N   0  3  0  0  0  0  0  0  0  0  0  0
    1.2385   -2.1421    0.0000 C   0  0  0  0  0  0  0  0  0  0  0  0
    2.8869   -2.1421    0.0000 O   0  0  0  0  0  0  0  0  0  0  0  0
    2.8869   -0.7131    0.0000 O   0  5  0  0  0  0  0  0  0  0  0  0
  1  2  1  0  0  0  0
  2  3  2  0  0  0  0
  2  4  1  0  0  0  0
  3  5  1  0  0  0  0
  6  4  2  0  0  0  0
  5  7  1  0  0  0  0
  5  8  2  0  0  0  0
  8  6  1  0  0  0  0
  7  9  2  0  0  0  0
  7 10  1  0  0  0  0
M  CHG  2   7   1  10  -1
M  END
>  <Name>
Benzene, 1-methyl-3-nitro-

>  <IGC50>
3.42

>  <CAS>
99-08-1

>  <SET>
ws

>  <Species>
Tetrahymena pyriformis

>  <Test duration>
48h

$$$$

  Mrv1808 07152009202D          

 10 10  0  0  0  0            999 V2000
    3.2999   -1.4289    0.0000 O   0  0  0  0  0  0  0  0  0  0  0  0
    2.4749   -1.4289    0.0000 C   0  0  0  0  0  0  0  0  0  0  0  0
    2.0624   -2.1449    0.0000 C   0  0  0  0  0  0  0  0  0  0  0  0
    2.0624   -0.7128    0.0000 C   0  0  0  0  0  0  0  0  0  0  0  0
    2.4749   -2.8577    0.0000 C   0  0  0  0  0  0  0  0  0  0  0  0
    1.2374   -2.1449    0.0000 C   0  0  0  0  0  0  0  0  0  0  0  0
    1.2374   -0.7128    0.0000 C   0  0  0  0  0  0  0  0  0  0  0  0
    2.4749    0.0000    0.0000 C   0  0  0  0  0  0  0  0  0  0  0  0
    0.8250   -1.4289    0.0000 C   0  0  0  0  0  0  0  0  0  0  0  0
    0.0000   -1.4289    0.0000 C   0  0  0  0  0  0  0  0  0  0  0  0
  1  2  1  0  0  0  0
  2  3  2  0  0  0  0
  2  4  1  0  0  0  0
  3  5  1  0  0  0  0
  3  6  1  0  0  0  0
  7  4  2  0  0  0  0
  4  8  1  0  0  0  0
  6  9  2  0  0  0  0
  9  7  1  0  0  0  0
  9 10  1  0  0  0  0
M  END
>  <Name>
Phenol, 2,4,6-trimethyl-

>  <IGC50>
3.42

>  <CAS>
527-60-6

>  <SET>
ws

>  <Species>
Tetrahymena pyriformis

>  <Test duration>
48h

$$$$

  Mrv1808 07152009202D          

 11 11  0  0  0  0            999 V2000
    2.0602   -2.1380    0.0000 C   0  0  0  0  0  0  0  0  0  0  0  0
    1.2339   -2.1380    0.0000 C   0  0  0  0  0  0  0  0  0  0  0  0
    2.4715   -1.4266    0.0000 C   0  0  0  0  0  0  0  0  0  0  0  0
    0.8226   -1.4266    0.0000 C   0  0  0  0  0  0  0  0  0  0  0  0
    2.0602   -0.7114    0.0000 C   0  0  0  0  0  0  0  0  0  0  0  0
    3.2941   -1.4266    0.0000 C   0  0  0  0  0  0  0  0  0  0  0  0
    0.0000   -1.4266    0.0000 Cl  0  0  0  0  0  0  0  0  0  0  0  0
    1.2339   -0.7114    0.0000 C   0  0  0  0  0  0  0  0  0  0  0  0
    3.7054   -2.1380    0.0000 O   0  0  0  0  0  0  0  0  0  0  0  0
    3.7054   -0.7114    0.0000 O   0  0  0  0  0  0  0  0  0  0  0  0
    3.2941    0.0000    0.0000 C   0  0  0  0  0  0  0  0  0  0  0  0
  1  2  2  0  0  0  0
  1  3  1  0  0  0  0
  2  4  1  0  0  0  0
  5  3  2  0  0  0  0
  3  6  1  0  0  0  0
  4  7  1  0  0  0  0
  4  8  2  0  0  0  0
  8  5  1  0  0  0  0
  6  9  2  0  0  0  0
  6 10  1  0  0  0  0
 10 11  1  0  0  0  0
M  END
>  <Name>
Benzoic acid, p-chloro-, methyl ester (8CI)

>  <IGC50>
3.42

>  <CAS>
1126-46-1

>  <SET>
ws

>  <Species>
Tetrahymena pyriformis

>  <Test duration>
48h

$$$$

  Mrv1808 07152009202D          

  9  9  0  0  0  0            999 V2000
    2.4680    1.4222    0.0000 C   0  0  0  0  0  0  0  0  0  0  0  0
    3.3045    1.4222    0.0000 C   0  0  0  0  0  0  0  0  0  0  0  0
    2.0497    0.7111    0.0000 C   0  0  0  0  0  0  0  0  0  0  0  0
    3.7228    0.7111    0.0000 C   0  0  0  0  0  0  0  0  0  0  0  0
    2.4680    0.0000    0.0000 C   0  0  0  0  0  0  0  0  0  0  0  0
    1.2549    0.7111    0.0000 S   0  0  0  0  0  0  0  0  0  0  0  0
    3.3045    0.0000    0.0000 C   0  0  0  0  0  0  0  0  0  0  0  0
    0.8366    1.4222    0.0000 C   0  0  0  0  0  0  0  0  0  0  0  0
    0.0000    1.4222    0.0000 C   0  0  0  0  0  0  0  0  0  0  0  0
  2  1  2  0  0  0  0
  1  3  1  0  0  0  0
  4  2  1  0  0  0  0
  3  5  2  0  0  0  0
  3  6  1  0  0  0  0
  7  4  2  0  0  0  0
  5  7  1  0  0  0  0
  6  8  1  0  0  0  0
  8  9  2  0  0  0  0
M  END
>  <Name>
Phenyl vinyl sulphide

>  <IGC50>
3.42

>  <CAS>
1822-73-7

>  <SET>
ws

>  <Species>
Tetrahymena pyriformis

>  <Test duration>
48h

$$$$

  Mrv1808 07152009203D          

 12 12  0  0  0  0            999 V2000
    5.6658    0.8780    0.7582 C   0  0  0  0  0  0  0  0  0  0  0  0
    7.0299    0.7314    0.9829 C   0  0  0  0  0  0  0  0  0  0  0  0
    4.9316    1.8094    1.4986 C   0  0  0  0  0  0  0  0  0  0  0  0
    7.6680    1.5105    1.9420 C   0  0  0  0  0  0  0  0  0  0  0  0
    5.5753    2.5908    2.4619 C   0  0  0  0  0  0  0  0  0  0  0  0
    3.4741    1.9342    1.2276 C   0  0  0  0  0  0  0  0  0  0  0  0
    6.9401    2.4385    2.6791 C   0  0  0  0  0  0  0  0  0  0  0  0
    2.8311    2.8552    2.0021 O   0  0  0  0  0  0  0  0  0  0  0  0
    2.8281    1.3104    0.4045 O   0  0  0  0  0  0  0  0  0  0  0  0
    1.4261    3.0376    1.8150 C   0  0  0  0  0  0  0  0  0  0  0  0
    0.9781    4.0967    2.8180 C   0  0  0  0  0  0  0  0  0  0  0  0
    0.8532    3.5515    4.2229 C   0  0  0  0  0  0  0  0  0  0  0  0
  2  1  2  0  0  0  0
  1  3  1  0  0  0  0
  4  2  1  0  0  0  0
  3  5  2  0  0  0  0
  3  6  1  0  0  0  0
  7  4  2  0  0  0  0
  5  7  1  0  0  0  0
  6  8  1  0  0  0  0
  6  9  2  0  0  0  0
  8 10  1  0  0  0  0
 10 11  1  0  0  0  0
 11 12  1  0  0  0  0
M  END
>  <Name>
propyl benzoate

>  <IGC50>
3.42

>  <CAS>
2315-68-6

>  <SET>
ws

>  <Species>
Tetrahymena pyriformis

>  <Test duration>
48h

$$$$

  Mrv1808 07152009203D          

 11 11  0  0  0  0            999 V2000
    2.4726   -0.3696   -0.0284 N   0  3  0  0  0  0  0  0  0  0  0  0
    3.0095   -1.3220    0.5083 O   0  5  0  0  0  0  0  0  0  0  0  0
    3.1494    0.4818   -0.5767 O   0  0  0  0  0  0  0  0  0  0  0  0
    0.9974   -0.2499   -0.0197 C   0  0  0  0  0  0  0  0  0  0  0  0
    0.3949    0.9939    0.0933 C   0  0  0  0  0  0  0  0  0  0  0  0
    0.2038   -1.3758   -0.1297 C   0  0  0  0  0  0  0  0  0  0  0  0
    1.2259    2.2457    0.2091 C   0  0  0  0  0  0  0  0  0  0  0  0
   -0.9897    1.0587    0.0966 C   0  0  0  0  0  0  0  0  0  0  0  0
   -1.1113   -1.2777   -0.1237 N   0  0  0  0  0  0  0  0  0  0  0  0
   -1.7194   -0.1117   -0.0120 C   0  0  0  0  0  0  0  0  0  0  0  0
   -3.4541   -0.0451   -0.0086 Cl  0  0  0  0  0  0  0  0  0  0  0  0
  1  2  1  0  0  0  0
  1  3  2  0  0  0  0
  1  4  1  0  0  0  0
  4  5  2  0  0  0  0
  4  6  1  0  0  0  0
  5  7  1  0  0  0  0
  5  8  1  0  0  0  0
  6  9  2  0  0  0  0
  8 10  2  0  0  0  0
  9 10  1  0  0  0  0
 10 11  1  0  0  0  0
M  CHG  2   1   1   2  -1
M  END
>  <Name>
2-chloro-4-methyl-5-nitro-pyridine

>  <IGC50>
3.42

>  <CAS>
23056-33-9

>  <SET>
ws

>  <Species>
Tetrahymena pyriformis

>  <Test duration>
48h

$$$$

  Mrv1808 07152009202D          

 10  9  0  0  0  0            999 V2000
    5.0050    0.0000    0.0000 O   0  0  0  0  0  0  0  0  0  0  0  0
    4.2893   -0.4154    0.0000 C   0  0  0  0  0  0  0  0  0  0  0  0
    4.2893   -1.2413    0.0000 C   0  0  0  0  0  0  0  0  0  0  0  0
    3.5736    0.0000    0.0000 Cl  0  0  0  0  0  0  0  0  0  0  0  0
    3.5736   -1.6517    0.0000 C   0  0  0  0  0  0  0  0  0  0  0  0
    2.8579   -1.2413    0.0000 C   0  0  0  0  0  0  0  0  0  0  0  0
    2.1472   -1.6517    0.0000 C   0  0  0  0  0  0  0  0  0  0  0  0
    1.4315   -1.2413    0.0000 C   0  0  0  0  0  0  0  0  0  0  0  0
    0.7157   -1.6517    0.0000 C   0  0  0  0  0  0  0  0  0  0  0  0
    0.0000   -1.2413    0.0000 C   0  0  0  0  0  0  0  0  0  0  0  0
  1  2  2  0  0  0  0
  2  3  1  0  0  0  0
  2  4  1  0  0  0  0
  3  5  1  0  0  0  0
  5  6  1  0  0  0  0
  6  7  1  0  0  0  0
  7  8  1  0  0  0  0
  8  9  1  0  0  0  0
  9 10  1  0  0  0  0
M  END
>  <Name>
Octanoyl chloride

>  <IGC50>
3.415

>  <CAS>
111-64-8

>  <SET>
ws

>  <Species>
Tetrahymena pyriformis

>  <Test duration>
48h

$$$$

  Mrv1808 07152009203D          

  9  9  0  0  0  0            999 V2000
   -2.3481    1.0977    0.0001 O   0  5  0  0  0  0  0  0  0  0  0  0
   -1.7397    0.0000    0.0001 N   0  3  0  0  0  0  0  0  0  0  0  0
   -2.3482   -1.0976   -0.0002 O   0  0  0  0  0  0  0  0  0  0  0  0
   -0.3201    0.0000    0.0000 C   0  0  0  0  0  0  0  0  0  0  0  0
    0.3780    1.2026   -0.0001 C   0  0  0  0  0  0  0  0  0  0  0  0
    0.3779   -1.2026    0.0001 C   0  0  0  0  0  0  0  0  0  0  0  0
    1.7625    1.1488   -0.0001 C   0  0  0  0  0  0  0  0  0  0  0  0
    1.7624   -1.1488    0.0001 C   0  0  0  0  0  0  0  0  0  0  0  0
    2.4753    0.0000    0.0000 N   0  0  0  0  0  0  0  0  0  0  0  0
  1  2  1  0  0  0  0
  3  2  2  0  0  0  0
  2  4  1  0  0  0  0
  4  5  2  0  0  0  0
  4  6  1  0  0  0  0
  5  7  1  0  0  0  0
  6  8  2  0  0  0  0
  9  7  2  0  0  0  0
  9  8  1  0  0  0  0
M  CHG  2   1  -1   2   1
M  END
>  <Name>
4-nitropyridine

>  <IGC50>
3.41

>  <CAS>
1122-61-8

>  <SET>
ws

>  <Species>
Tetrahymena pyriformis

>  <Test duration>
48h

$$$$

  Mrv1808 07152009203D          

 10  9  0  0  0  0            999 V2000
    0.7438   -0.5849    0.0581 O   0  0  0  0  0  0  0  0  0  0  0  0
   -0.5148    0.0758    0.0107 C   0  0  0  0  0  0  0  0  0  0  0  0
    1.8412    0.2218   -0.0200 C   0  0  0  0  0  0  0  0  0  0  0  0
   -1.6193   -0.9695    0.1094 C   0  0  0  0  0  0  0  0  0  0  0  0
    1.8457    1.4381   -0.1249 O   0  0  0  0  0  0  0  0  0  0  0  0
    3.0429   -0.6357    0.0427 C   0  0  0  0  0  0  0  0  0  0  0  0
   -3.0374   -0.3792    0.0486 C   0  0  1  0  0  0  0  0  0  0  0  0
    4.2599   -0.0873   -0.0148 C   0  0  0  0  0  0  0  0  0  0  0  0
   -3.2298    0.6293    1.1837 C   0  0  0  0  0  0  0  0  0  0  0  0
   -3.3321    0.2916   -1.2937 C   0  0  0  0  0  0  0  0  0  0  0  0
  1  2  1  0  0  0  0
  1  3  1  0  0  0  0
  4  2  1  0  0  0  0
  5  3  2  0  0  0  0
  3  6  1  0  0  0  0
  7  4  1  0  0  0  0
  6  8  2  0  0  0  0
  7  9  1  0  0  0  0
  7 10  1  0  0  0  0
M  END
>  <Name>
3-methylbutyl prop-2-enoate

>  <IGC50>
3.41

>  <CAS>
4245-35-6

>  <SET>
ws

>  <Species>
Tetrahymena pyriformis

>  <Test duration>
48h

$$$$

  Mrv1808 07152009202D          

  9  9  0  0  0  0            999 V2000
    0.0000    0.0000    0.0000 O   0  0  0  0  0  0  0  0  0  0  0  0
    0.4125    0.7013    0.0000 C   0  0  0  0  0  0  0  0  0  0  0  0
    1.2787    0.7013    0.0000 C   0  0  0  0  0  0  0  0  0  0  0  0
    1.6912    1.4437    0.0000 C   0  0  0  0  0  0  0  0  0  0  0  0
    1.6912    0.0000    0.0000 C   0  0  0  0  0  0  0  0  0  0  0  0
    2.5162    1.4437    0.0000 C   0  0  0  0  0  0  0  0  0  0  0  0
    2.5162    0.0000    0.0000 C   0  0  0  0  0  0  0  0  0  0  0  0
    2.9286    2.1450    0.0000 Cl  0  0  0  0  0  0  0  0  0  0  0  0
    2.9286    0.7013    0.0000 C   0  0  0  0  0  0  0  0  0  0  0  0
  1  2  2  0  0  0  0
  2  3  1  0  0  0  0
  4  3  2  0  0  0  0
  3  5  1  0  0  0  0
  6  4  1  0  0  0  0
  5  7  2  0  0  0  0
  6  8  1  0  0  0  0
  9  6  2  0  0  0  0
  7  9  1  0  0  0  0
M  END
>  <Name>
Benzaldehyde, m-chloro- (8CI)

>  <IGC50>
3.406

>  <CAS>
587-04-2

>  <SET>
ws

>  <Species>
Tetrahymena pyriformis

>  <Test duration>
48h

$$$$

  Mrv1808 07152009202D          

 10  9  0  0  0  0            999 V2000
    3.2983    0.0000    0.0000 C   0  0  0  0  0  0  0  0  0  0  0  0
    2.8859    0.7146    0.0000 C   0  0  0  0  0  0  0  0  0  0  0  0
    2.0615    0.7146    0.0000 C   0  0  0  0  0  0  0  0  0  0  0  0
    1.2368    0.7146    0.0000 C   0  0  0  0  0  0  0  0  0  0  0  0
    0.4122    0.7146    0.0000 C   0  0  0  0  0  0  0  0  0  0  0  0
    0.0000    0.0000    0.0000 O   0  0  0  0  0  0  0  0  0  0  0  0
    0.0000    1.4292    0.0000 C   0  0  0  0  0  0  0  0  0  0  0  0
    0.4122    2.1439    0.0000 C   0  0  0  0  0  0  0  0  0  0  0  0
    0.0000    2.8585    0.0000 C   0  0  0  0  0  0  0  0  0  0  0  0
    1.2368    2.1439    0.0000 C   0  0  0  0  0  0  0  0  0  0  0  0
  1  2  1  0  0  0  0
  2  3  1  0  0  0  0
  3  4  3  0  0  0  0
  4  5  1  0  0  0  0
  5  6  1  0  0  0  0
  5  7  1  0  0  0  0
  7  8  1  0  0  0  0
  8  9  1  0  0  0  0
  8 10  1  0  0  0  0
M  END
>  <Name>
2-Methyl-5-octyn-4-ol

>  <IGC50>
3.401

>  <CAS>
60657-70-7

>  <SET>
ws

>  <Species>
Tetrahymena pyriformis

>  <Test duration>
48h

$$$$

  Mrv1808 07152009202D          

  9  9  0  0  0  0            999 V2000
    3.7055   -0.7151    0.0000 Cl  0  0  0  0  0  0  0  0  0  0  0  0
    2.8829   -0.7151    0.0000 C   0  0  0  0  0  0  0  0  0  0  0  0
    2.4716   -1.4266    0.0000 C   0  0  0  0  0  0  0  0  0  0  0  0
    2.4716    0.0000    0.0000 C   0  0  0  0  0  0  0  0  0  0  0  0
    1.6453   -1.4266    0.0000 C   0  0  0  0  0  0  0  0  0  0  0  0
    1.6453    0.0000    0.0000 C   0  0  0  0  0  0  0  0  0  0  0  0
    1.2339   -0.7151    0.0000 C   0  0  0  0  0  0  0  0  0  0  0  0
    0.4113   -0.7151    0.0000 C   0  0  0  0  0  0  0  0  0  0  0  0
    0.0000    0.0000    0.0000 O   0  0  0  0  0  0  0  0  0  0  0  0
  1  2  1  0  0  0  0
  2  3  2  0  0  0  0
  2  4  1  0  0  0  0
  3  5  1  0  0  0  0
  4  6  2  0  0  0  0
  5  7  2  0  0  0  0
  7  6  1  0  0  0  0
  7  8  1  0  0  0  0
  8  9  2  0  0  0  0
M  END
>  <Name>
Benzaldehyde, 4-chloro-

>  <IGC50>
3.4

>  <CAS>
104-88-1

>  <SET>
ws

>  <Species>
Tetrahymena pyriformis

>  <Test duration>
48h

$$$$

  Mrv1808 07152009203D          

  7  7  0  0  0  0            999 V2000
   -2.2151    0.5544    0.0003 S   0  0  0  0  0  0  0  0  0  0  0  0
   -0.6307    1.2042   -0.0001 C   0  0  0  0  0  0  0  0  0  0  0  0
   -1.6154   -1.0495    0.0000 C   0  0  0  0  0  0  0  0  0  0  0  0
    0.3321    0.2190   -0.0002 C   0  0  0  0  0  0  0  0  0  0  0  0
   -0.2385   -1.0866   -0.0002 C   0  0  0  0  0  0  0  0  0  0  0  0
    1.7404    0.5144   -0.0002 C   0  0  0  0  0  0  0  0  0  0  0  0
    2.6272   -0.3559    0.0003 O   0  0  0  0  0  0  0  0  0  0  0  0
  1  2  1  0  0  0  0
  1  3  1  0  0  0  0
  4  2  2  0  0  0  0
  5  3  2  0  0  0  0
  4  5  1  0  0  0  0
  4  6  1  0  0  0  0
  7  6  2  0  0  0  0
M  END
>  <Name>
thiophene-3-carbaldehyde

>  <IGC50>
3.4

>  <CAS>
498-62-4

>  <SET>
ws

>  <Species>
Tetrahymena pyriformis

>  <Test duration>
48h

$$$$

  Mrv1808 07152009202D          

  9  9  0  0  0  0            999 V2000
    0.0000    1.3201    0.0000 C   0  0  0  0  0  0  0  0  0  0  0  0
    0.5776    0.7013    0.0000 O   0  0  0  0  0  0  0  0  0  0  0  0
    1.4026    0.7013    0.0000 C   0  0  0  0  0  0  0  0  0  0  0  0
    1.8151    0.0000    0.0000 C   0  0  0  0  0  0  0  0  0  0  0  0
    1.8151    1.4438    0.0000 C   0  0  0  0  0  0  0  0  0  0  0  0
    2.6401    0.0000    0.0000 C   0  0  0  0  0  0  0  0  0  0  0  0
    2.6401    1.4438    0.0000 C   0  0  0  0  0  0  0  0  0  0  0  0
    3.0527    0.7013    0.0000 C   0  0  0  0  0  0  0  0  0  0  0  0
    3.8777    0.7013    0.0000 Br  0  0  0  0  0  0  0  0  0  0  0  0
  1  2  1  0  0  0  0
  2  3  1  0  0  0  0
  3  4  2  0  0  0  0
  5  3  1  0  0  0  0
  4  6  1  0  0  0  0
  7  5  2  0  0  0  0
  6  8  2  0  0  0  0
  8  7  1  0  0  0  0
  9  8  1  0  0  0  0
M  END
>  <Name>
1-bromo-4-methoxybenzene

>  <IGC50>
3.4

>  <CAS>
104-92-7

>  <SET>
ws

>  <Species>
Tetrahymena pyriformis

>  <Test duration>
48h

$$$$

  Mrv1808 07152009202D          

  9  8  0  0  0  0            999 V2000
    1.4537    1.2461    0.0000 O   0  0  0  0  0  0  0  0  0  0  0  0
    2.1599    0.8308    0.0000 C   0  0  0  0  0  0  0  0  0  0  0  0
    0.7477    0.8308    0.0000 C   0  0  0  0  0  0  0  0  0  0  0  0
    2.9076    1.2461    0.0000 C   0  0  0  0  0  0  0  0  0  0  0  0
    0.7477    0.0000    0.0000 C   0  0  0  0  0  0  0  0  0  0  0  0
    0.0000    1.2461    0.0000 O   0  0  0  0  0  0  0  0  0  0  0  0
    3.6137    0.8308    0.0000 C   0  0  0  0  0  0  0  0  0  0  0  0
    4.3198    1.2461    0.0000 C   0  0  0  0  0  0  0  0  0  0  0  0
    5.0674    0.8308    0.0000 Br  0  0  0  0  0  0  0  0  0  0  0  0
  1  2  1  0  0  0  0
  1  3  1  0  0  0  0
  2  4  1  0  0  0  0
  3  5  1  0  0  0  0
  3  6  2  0  0  0  0
  4  7  1  0  0  0  0
  7  8  1  0  0  0  0
  8  9  1  0  0  0  0
M  END
>  <Name>
1-Butanol, 4-bromo-, acetate

>  <IGC50>
3.392

>  <CAS>
4753-59-7

>  <SET>
ws

>  <Species>
Tetrahymena pyriformis

>  <Test duration>
48h

$$$$

  Mrv1808 07152009202D          

  9  9  0  0  0  0            999 V2000
    0.0000   -1.6499    0.0000 Cl  0  0  0  0  0  0  0  0  0  0  0  0
    0.7148   -1.2381    0.0000 C   0  0  0  0  0  0  0  0  0  0  0  0
    0.7148   -0.4118    0.0000 C   0  0  0  0  0  0  0  0  0  0  0  0
    1.4297   -1.6499    0.0000 C   0  0  0  0  0  0  0  0  0  0  0  0
    1.4297    0.0000    0.0000 C   0  0  0  0  0  0  0  0  0  0  0  0
    0.0000    0.0000    0.0000 C   0  0  0  0  0  0  0  0  0  0  0  0
    2.1445   -1.2381    0.0000 C   0  0  0  0  0  0  0  0  0  0  0  0
    2.1445   -0.4118    0.0000 C   0  0  0  0  0  0  0  0  0  0  0  0
    2.8594   -1.6499    0.0000 N   0  0  0  0  0  0  0  0  0  0  0  0
  1  2  1  0  0  0  0
  2  3  2  0  0  0  0
  2  4  1  0  0  0  0
  3  5  1  0  0  0  0
  3  6  1  0  0  0  0
  7  4  2  0  0  0  0
  5  8  2  0  0  0  0
  8  7  1  0  0  0  0
  7  9  1  0  0  0  0
M  END
>  <Name>
Benzenamine, 3-chloro-4-methyl-

>  <IGC50>
3.39

>  <CAS>
95-74-9

>  <SET>
ws

>  <Species>
Tetrahymena pyriformis

>  <Test duration>
48h

$$$$

  Mrv1808 07152009202D          

 11 12  0  0  0  0            999 V2000
    2.1449    1.6500    0.0000 C   0  0  0  0  0  0  0  0  0  0  0  0
    2.1449    2.4750    0.0000 F   0  0  0  0  0  0  0  0  0  0  0  0
    1.4438    1.2375    0.0000 C   0  0  0  0  0  0  0  0  0  0  0  0
    2.8875    1.2375    0.0000 C   0  0  0  0  0  0  0  0  0  0  0  0
    1.4438    0.4125    0.0000 C   0  0  0  0  0  0  0  0  0  0  0  0
    0.7425    1.6500    0.0000 C   0  0  0  0  0  0  0  0  0  0  0  0
    2.8875    0.4125    0.0000 C   0  0  0  0  0  0  0  0  0  0  0  0
    2.1449    0.0000    0.0000 C   0  0  0  0  0  0  0  0  0  0  0  0
    0.7425    0.0000    0.0000 C   0  0  0  0  0  0  0  0  0  0  0  0
    0.0000    1.2375    0.0000 C   0  0  0  0  0  0  0  0  0  0  0  0
    0.0000    0.4125    0.0000 C   0  0  0  0  0  0  0  0  0  0  0  0
  1  2  1  0  0  0  0
  3  1  2  0  0  0  0
  1  4  1  0  0  0  0
  3  5  1  0  0  0  0
  6  3  1  0  0  0  0
  4  7  2  0  0  0  0
  8  5  2  0  0  0  0
  5  9  1  0  0  0  0
 10  6  2  0  0  0  0
  7  8  1  0  0  0  0
  9 11  2  0  0  0  0
 11 10  1  0  0  0  0
M  END
>  <Name>
1-fluoronaphthalene

>  <IGC50>
3.39

>  <CAS>
321-38-0

>  <SET>
ws

>  <Species>
Tetrahymena pyriformis

>  <Test duration>
48h

$$$$

  Mrv1808 07152009202D          

 13 13  0  0  0  0            999 V2000
    2.4771   -2.1469    0.0000 C   0  0  0  0  0  0  0  0  0  0  0  0
    1.6514   -2.1469    0.0000 C   0  0  0  0  0  0  0  0  0  0  0  0
    2.8900   -1.4326    0.0000 C   0  0  0  0  0  0  0  0  0  0  0  0
    1.2386   -1.4326    0.0000 C   0  0  0  0  0  0  0  0  0  0  0  0
    2.4771   -0.7184    0.0000 C   0  0  0  0  0  0  0  0  0  0  0  0
    3.7157   -1.4326    0.0000 C   0  0  0  0  0  0  0  0  0  0  0  0
    0.4129   -1.4326    0.0000 N   0  3  0  0  0  0  0  0  0  0  0  0
    1.6514   -0.7184    0.0000 C   0  0  0  0  0  0  0  0  0  0  0  0
    4.1286   -2.1469    0.0000 O   0  0  0  0  0  0  0  0  0  0  0  0
    4.1286   -0.7184    0.0000 O   0  0  0  0  0  0  0  0  0  0  0  0
    0.0000   -2.1469    0.0000 O   0  0  0  0  0  0  0  0  0  0  0  0
    0.0000   -0.7184    0.0000 O   0  5  0  0  0  0  0  0  0  0  0  0
    3.7157    0.0000    0.0000 C   0  0  0  0  0  0  0  0  0  0  0  0
  1  2  2  0  0  0  0
  1  3  1  0  0  0  0
  2  4  1  0  0  0  0
  5  3  2  0  0  0  0
  3  6  1  0  0  0  0
  4  7  1  0  0  0  0
  4  8  2  0  0  0  0
  8  5  1  0  0  0  0
  6  9  2  0  0  0  0
  6 10  1  0  0  0  0
  7 11  2  0  0  0  0
  7 12  1  0  0  0  0
 10 13  1  0  0  0  0
M  CHG  2   7   1  12  -1
M  END
>  <Name>
Benzoic acid, 4-nitro-, methyl ester

>  <IGC50>
3.39

>  <CAS>
619-50-1

>  <SET>
ws

>  <Species>
Tetrahymena pyriformis

>  <Test duration>
48h

$$$$

  Mrv1808 07152009203D          

 12 13  0  0  0  0            999 V2000
   -3.8062   -0.6289   -0.8596 O   0  0  0  0  0  0  0  0  0  0  0  0
   -3.2386   -0.4059    0.4252 C   0  0  0  0  0  0  0  0  0  0  0  0
   -1.8138    0.0085    0.2720 C   0  0  0  0  0  0  0  0  0  0  0  0
   -0.8057   -0.9558    0.2489 C   0  0  0  0  0  0  0  0  0  0  0  0
   -1.4911    1.3569    0.1510 C   0  0  0  0  0  0  0  0  0  0  0  0
    0.5405   -0.5822    0.1048 C   0  0  0  0  0  0  0  0  0  0  0  0
   -0.1590    1.7461    0.0069 C   0  0  0  0  0  0  0  0  0  0  0  0
    0.8686    0.7889   -0.0179 C   0  0  0  0  0  0  0  0  0  0  0  0
    1.5680   -1.5391    0.0797 C   0  0  0  0  0  0  0  0  0  0  0  0
    2.2145    1.1628   -0.1622 C   0  0  0  0  0  0  0  0  0  0  0  0
    2.9000   -1.1498   -0.0642 C   0  0  0  0  0  0  0  0  0  0  0  0
    3.2227    0.1986   -0.1848 C   0  0  0  0  0  0  0  0  0  0  0  0
  1  2  1  0  0  0  0
  3  2  1  0  0  0  0
  3  4  2  0  0  0  0
  3  5  1  0  0  0  0
  6  4  1  0  0  0  0
  7  5  2  0  0  0  0
  6  8  1  0  0  0  0
  6  9  2  0  0  0  0
  8  7  1  0  0  0  0
  8 10  2  0  0  0  0
  9 11  1  0  0  0  0
 10 12  1  0  0  0  0
 11 12  2  0  0  0  0
M  END
>  <Name>
naphthalen-2-ylmethanol

>  <IGC50>
3.39

>  <CAS>
1592-38-7

>  <SET>
ws

>  <Species>
Tetrahymena pyriformis

>  <Test duration>
48h

$$$$

  Mrv1808 07152009203D          

 10 10  0  0  0  0            999 V2000
    4.7094   -0.1174    1.1709 Br  0  0  0  0  0  0  0  0  0  0  0  0
    3.5260    0.0532   -0.3702 C   0  0  0  0  0  0  0  0  0  0  0  0
    2.0853    0.0139    0.0974 C   0  0  0  0  0  0  0  0  0  0  0  0
    0.9676    0.1006   -1.3303 S   0  0  0  0  0  0  0  0  0  0  0  0
   -0.6305    0.0394   -0.5435 C   0  0  0  0  0  0  0  0  0  0  0  0
   -1.2632    1.2209   -0.1567 C   0  0  0  0  0  0  0  0  0  0  0  0
   -1.2488   -1.1900   -0.3148 C   0  0  0  0  0  0  0  0  0  0  0  0
   -2.5139    1.1732    0.4589 C   0  0  0  0  0  0  0  0  0  0  0  0
   -2.4997   -1.2376    0.3007 C   0  0  0  0  0  0  0  0  0  0  0  0
   -3.1322   -0.0561    0.6875 C   0  0  0  0  0  0  0  0  0  0  0  0
  1  2  1  0  0  0  0
  3  2  1  0  0  0  0
  4  3  1  0  0  0  0
  4  5  1  0  0  0  0
  5  6  2  0  0  0  0
  5  7  1  0  0  0  0
  6  8  1  0  0  0  0
  7  9  2  0  0  0  0
  8 10  2  0  0  0  0
  9 10  1  0  0  0  0
M  END
>  <Name>
2-bromoethylsulfanylbenzene

>  <IGC50>
3.39

>  <CAS>
4837-01-8

>  <SET>
ws

>  <Species>
Tetrahymena pyriformis

>  <Test duration>
48h

$$$$

  Mrv1808 07152009203D          

 11 11  0  0  0  0            999 V2000
    1.4527    1.9618   -0.0002 O   0  0  0  0  0  0  0  0  0  0  0  0
    0.3493    1.1683    0.0001 C   0  0  0  0  0  0  0  0  0  0  0  0
    0.4239   -0.2153    0.0002 C   0  0  0  0  0  0  0  0  0  0  0  0
   -0.9127    1.7519    0.0002 C   0  0  0  0  0  0  0  0  0  0  0  0
   -0.6539   -1.0313   -0.0001 N   0  0  0  0  0  0  0  0  0  0  0  0
    1.7379   -0.7849   -0.0001 N   0  3  0  0  0  0  0  0  0  0  0  0
   -2.0455    0.9454    0.0001 C   0  0  0  0  0  0  0  0  0  0  0  0
   -1.8637   -0.4281   -0.0002 C   0  0  0  0  0  0  0  0  0  0  0  0
    2.7211   -0.0147   -0.0002 O   0  5  0  0  0  0  0  0  0  0  0  0
    1.8481   -2.0289    0.0003 O   0  0  0  0  0  0  0  0  0  0  0  0
   -3.0572   -1.3240   -0.0001 C   0  0  0  0  0  0  0  0  0  0  0  0
  1  2  1  0  0  0  0
  3  2  2  0  0  0  0
  2  4  1  0  0  0  0
  5  3  1  0  0  0  0
  6  3  1  0  0  0  0
  7  4  2  0  0  0  0
  5  8  2  0  0  0  0
  9  6  1  0  0  0  0
 10  6  2  0  0  0  0
  8  7  1  0  0  0  0
  8 11  1  0  0  0  0
M  CHG  2   6   1   9  -1
M  END
>  <Name>
6-methyl-2-nitropyridin-3-ol

>  <IGC50>
3.39

>  <CAS>
15128-90-2

>  <SET>
ws

>  <Species>
Tetrahymena pyriformis

>  <Test duration>
48h

$$$$

  Mrv1808 07152009202D          

 13 14  0  0  0  0            999 V2000
    1.4538    1.2461    0.0000 C   0  0  0  0  0  0  0  0  0  0  0  0
    0.7477    1.6200    0.0000 C   0  0  0  0  0  0  0  0  0  0  0  0
    2.1599    1.6200    0.0000 C   0  0  0  0  0  0  0  0  0  0  0  0
    1.4538    0.4154    0.0000 N   0  0  0  0  0  0  0  0  0  0  0  0
    0.0000    1.2461    0.0000 C   0  0  0  0  0  0  0  0  0  0  0  0
    2.9076    1.2461    0.0000 C   0  0  0  0  0  0  0  0  0  0  0  0
    0.7477    0.0000    0.0000 C   0  0  0  0  0  0  0  0  0  0  0  0
    0.0000    0.4154    0.0000 C   0  0  0  0  0  0  0  0  0  0  0  0
    2.9076    0.4154    0.0000 C   0  0  0  0  0  0  0  0  0  0  0  0
    3.6137    1.6200    0.0000 C   0  0  0  0  0  0  0  0  0  0  0  0
    3.6137    0.0000    0.0000 C   0  0  0  0  0  0  0  0  0  0  0  0
    4.3198    1.2461    0.0000 C   0  0  0  0  0  0  0  0  0  0  0  0
    4.3198    0.4154    0.0000 C   0  0  0  0  0  0  0  0  0  0  0  0
  2  1  2  0  0  0  0
  1  3  1  0  0  0  0
  1  4  1  0  0  0  0
  5  2  1  0  0  0  0
  3  6  1  0  0  0  0
  4  7  2  0  0  0  0
  8  5  2  0  0  0  0
  9  6  2  0  0  0  0
  6 10  1  0  0  0  0
  7  8  1  0  0  0  0
 11  9  1  0  0  0  0
 10 12  2  0  0  0  0
 13 11  2  0  0  0  0
 12 13  1  0  0  0  0
M  END
>  <Name>
Pyridine, 2-(phenylmethyl)-

>  <IGC50>
3.38

>  <CAS>
101-82-6

>  <SET>
ws

>  <Species>
Tetrahymena pyriformis

>  <Test duration>
48h

$$$$

  Mrv1808 07152009202D          

 10 10  0  0  0  0            999 V2000
    2.4721   -1.4279    0.0000 C   0  0  0  0  0  0  0  0  0  0  0  0
    2.8846   -2.1403    0.0000 O   0  0  0  0  0  0  0  0  0  0  0  0
    2.8846   -0.7125    0.0000 N   0  0  0  0  0  0  0  0  0  0  0  0
    1.6471   -1.4279    0.0000 C   0  0  0  0  0  0  0  0  0  0  0  0
    2.4721    0.0000    0.0000 O   0  0  0  0  0  0  0  0  0  0  0  0
    1.2375   -2.1403    0.0000 C   0  0  0  0  0  0  0  0  0  0  0  0
    1.2375   -0.7125    0.0000 C   0  0  0  0  0  0  0  0  0  0  0  0
    0.4125   -2.1403    0.0000 C   0  0  0  0  0  0  0  0  0  0  0  0
    0.4125   -0.7125    0.0000 C   0  0  0  0  0  0  0  0  0  0  0  0
    0.0000   -1.4279    0.0000 C   0  0  0  0  0  0  0  0  0  0  0  0
  1  2  2  0  0  0  0
  1  3  1  0  0  0  0
  1  4  1  0  0  0  0
  3  5  1  0  0  0  0
  4  6  2  0  0  0  0
  4  7  1  0  0  0  0
  6  8  1  0  0  0  0
  9  7  2  0  0  0  0
  8 10  2  0  0  0  0
 10  9  1  0  0  0  0
M  END
>  <Name>
Benzamide, N-hydroxy-

>  <IGC50>
3.38

>  <CAS>
495-18-1

>  <SET>
ws

>  <Species>
Tetrahymena pyriformis

>  <Test duration>
48h

$$$$

  Mrv1808 07152009202D          

 10 10  0  0  0  0            999 V2000
    0.0418    1.4222    0.0000 O   0  0  0  0  0  0  0  0  0  0  0  0
    0.4183    0.7111    0.0000 N   0  0  0  0  0  0  0  0  0  0  0  0
    0.0000    0.0000    0.0000 O   0  0  0  0  0  0  0  0  0  0  0  0
    1.2967    0.7111    0.0000 C   0  0  0  0  0  0  0  0  0  0  0  0
    1.7150    1.4222    0.0000 C   0  0  0  0  0  0  0  0  0  0  0  0
    1.7150    0.0000    0.0000 C   0  0  0  0  0  0  0  0  0  0  0  0
    2.5516    1.4222    0.0000 C   0  0  0  0  0  0  0  0  0  0  0  0
    2.5516    0.0000    0.0000 C   0  0  0  0  0  0  0  0  0  0  0  0
    2.9699    0.7111    0.0000 C   0  0  0  0  0  0  0  0  0  0  0  0
    3.8065    0.7111    0.0000 Br  0  0  0  0  0  0  0  0  0  0  0  0
  1  2  2  0  0  0  0
  2  3  2  0  0  0  0
  2  4  1  0  0  0  0
  5  4  2  0  0  0  0
  4  6  1  0  0  0  0
  7  5  1  0  0  0  0
  6  8  2  0  0  0  0
  9  7  2  0  0  0  0
  8  9  1  0  0  0  0
  9 10  1  0  0  0  0
M  END
>  <Name>
Benzene, 1-bromo-4-nitro-

>  <IGC50>
3.38

>  <CAS>
586-78-7

>  <SET>
ws

>  <Species>
Tetrahymena pyriformis

>  <Test duration>
48h

$$$$

  Mrv1808 07152009202D          

  9  9  0  0  0  0            999 V2000
    0.8263   -2.8594    0.0000 N   0  0  0  0  0  0  0  0  0  0  0  0
    1.2381   -2.1445    0.0000 C   0  0  0  0  0  0  0  0  0  0  0  0
    0.8263   -1.4297    0.0000 C   0  0  0  0  0  0  0  0  0  0  0  0
    2.0645   -2.1445    0.0000 C   0  0  0  0  0  0  0  0  0  0  0  0
    1.2381   -0.7148    0.0000 C   0  0  0  0  0  0  0  0  0  0  0  0
    0.0000   -1.4297    0.0000 C   0  0  0  0  0  0  0  0  0  0  0  0
    2.4762   -1.4297    0.0000 C   0  0  0  0  0  0  0  0  0  0  0  0
    2.0645   -0.7148    0.0000 C   0  0  0  0  0  0  0  0  0  0  0  0
    0.8263    0.0000    0.0000 Cl  0  0  0  0  0  0  0  0  0  0  0  0
  1  2  1  0  0  0  0
  2  3  2  0  0  0  0
  2  4  1  0  0  0  0
  3  5  1  0  0  0  0
  3  6  1  0  0  0  0
  7  4  2  0  0  0  0
  5  8  2  0  0  0  0
  5  9  1  0  0  0  0
  8  7  1  0  0  0  0
M  END
>  <Name>
Benzenamine, 3-chloro-2-methyl-

>  <IGC50>
3.38

>  <CAS>
87-60-5

>  <SET>
ws

>  <Species>
Tetrahymena pyriformis

>  <Test duration>
48h

$$$$

  Mrv1808 07152009202D          

 11 11  0  0  0  0            999 V2000
    2.8567   -1.2335    0.0000 C   0  0  0  0  0  0  0  0  0  0  0  0
    3.5676   -1.6489    0.0000 C   0  0  0  0  0  0  0  0  0  0  0  0
    2.1415   -1.6489    0.0000 C   0  0  0  0  0  0  0  0  0  0  0  0
    2.8567   -0.4111    0.0000 C   0  0  0  0  0  0  0  0  0  0  0  0
    4.2829   -1.2335    0.0000 O   0  0  0  0  0  0  0  0  0  0  0  0
    2.1415   -2.4713    0.0000 O   0  0  0  0  0  0  0  0  0  0  0  0
    1.4262   -1.2335    0.0000 C   0  0  0  0  0  0  0  0  0  0  0  0
    2.1415    0.0000    0.0000 C   0  0  0  0  0  0  0  0  0  0  0  0
    0.7153   -1.6489    0.0000 O   0  0  0  0  0  0  0  0  0  0  0  0
    1.4262   -0.4111    0.0000 C   0  0  0  0  0  0  0  0  0  0  0  0
    0.0000   -1.2335    0.0000 C   0  0  0  0  0  0  0  0  0  0  0  0
  1  2  1  0  0  0  0
  1  3  2  0  0  0  0
  1  4  1  0  0  0  0
  2  5  2  0  0  0  0
  3  6  1  0  0  0  0
  3  7  1  0  0  0  0
  8  4  2  0  0  0  0
  7  9  1  0  0  0  0
  7 10  2  0  0  0  0
 10  8  1  0  0  0  0
  9 11  1  0  0  0  0
M  END
>  <Name>
m-Anisaldehyde, 2-hydroxy- (8CI)

>  <IGC50>
3.377

>  <CAS>
148-53-8

>  <SET>
ws

>  <Species>
Tetrahymena pyriformis

>  <Test duration>
48h

$$$$

  Mrv1808 07152009203D          

 10 11  0  0  0  0            999 V2000
   -0.7424    1.7866    0.0017 N   0  0  0  0  0  0  0  0  0  0  0  0
   -1.9339    1.0348    0.0039 C   0  0  0  0  0  0  0  0  0  0  0  0
    0.3513    0.9027   -0.0014 C   0  0  0  0  0  0  0  0  0  0  0  0
   -1.6122   -0.3098    0.0025 C   0  0  0  0  0  0  0  0  0  0  0  0
   -0.1759   -0.4176    0.0009 C   0  0  0  0  0  0  0  0  0  0  0  0
    1.7337    1.1458   -0.0038 C   0  0  0  0  0  0  0  0  0  0  0  0
   -2.5552   -1.4379   -0.0060 C   0  0  0  0  0  0  0  0  0  0  0  0
    0.7000   -1.5116    0.0045 C   0  0  0  0  0  0  0  0  0  0  0  0
    2.5676    0.0482   -0.0028 C   0  0  0  0  0  0  0  0  0  0  0  0
    2.0570   -1.2660    0.0022 C   0  0  0  0  0  0  0  0  0  0  0  0
  1  2  1  0  0  0  0
  1  3  1  0  0  0  0
  2  4  2  0  0  0  0
  5  3  1  0  0  0  0
  6  3  2  0  0  0  0
  4  5  1  0  0  0  0
  4  7  1  0  0  0  0
  5  8  2  0  0  0  0
  9  6  1  0  0  0  0
  8 10  1  0  0  0  0
 10  9  2  0  0  0  0
M  END
>  <Name>
1H-Indole, 3-methyl-

>  <IGC50>
3.37

>  <CAS>
83-34-1

>  <SET>
ws

>  <Species>
Tetrahymena pyriformis

>  <Test duration>
48h

$$$$

  Mrv1808 07152009202D          

 11 11  0  0  0  0            999 V2000
    0.0000   -2.1449    0.0000 O   0  5  0  0  0  0  0  0  0  0  0  0
    0.4128   -1.4290    0.0000 N   0  3  0  0  0  0  0  0  0  0  0  0
    0.0000   -0.7160    0.0000 O   0  0  0  0  0  0  0  0  0  0  0  0
    1.2385   -1.4290    0.0000 C   0  0  0  0  0  0  0  0  0  0  0  0
    1.6484   -0.7160    0.0000 C   0  0  0  0  0  0  0  0  0  0  0  0
    1.6484   -2.1449    0.0000 C   0  0  0  0  0  0  0  0  0  0  0  0
    1.2385    0.0000    0.0000 N   0  0  0  0  0  0  0  0  0  0  0  0
    2.4741   -0.7160    0.0000 C   0  0  0  0  0  0  0  0  0  0  0  0
    2.4741   -2.1449    0.0000 C   0  0  0  0  0  0  0  0  0  0  0  0
    2.8869   -1.4290    0.0000 C   0  0  0  0  0  0  0  0  0  0  0  0
    2.8869   -2.8580    0.0000 C   0  0  0  0  0  0  0  0  0  0  0  0
  1  2  1  0  0  0  0
  2  3  2  0  0  0  0
  2  4  1  0  0  0  0
  4  5  2  0  0  0  0
  4  6  1  0  0  0  0
  5  7  1  0  0  0  0
  5  8  1  0  0  0  0
  9  6  2  0  0  0  0
  8 10  2  0  0  0  0
 10  9  1  0  0  0  0
  9 11  1  0  0  0  0
M  CHG  2   1  -1   2   1
M  END
>  <Name>
Benzenamine, 4-methyl-2-nitro-

>  <IGC50>
3.37

>  <CAS>
89-62-3

>  <SET>
ws

>  <Species>
Tetrahymena pyriformis

>  <Test duration>
48h

$$$$

  Mrv1808 07152009202D          

  9  9  0  0  0  0            999 V2000
    0.0000   -1.6499    0.0000 O   0  0  0  0  0  0  0  0  0  0  0  0
    0.7148   -1.2381    0.0000 C   0  0  0  0  0  0  0  0  0  0  0  0
    0.7148   -0.4118    0.0000 C   0  0  0  0  0  0  0  0  0  0  0  0
    1.4297   -1.6499    0.0000 C   0  0  0  0  0  0  0  0  0  0  0  0
    1.4297    0.0000    0.0000 C   0  0  0  0  0  0  0  0  0  0  0  0
    0.0000    0.0000    0.0000 O   0  0  0  0  0  0  0  0  0  0  0  0
    2.1445   -1.2381    0.0000 C   0  0  0  0  0  0  0  0  0  0  0  0
    2.1445   -0.4118    0.0000 C   0  0  0  0  0  0  0  0  0  0  0  0
    2.8594   -1.6499    0.0000 C   0  0  0  0  0  0  0  0  0  0  0  0
  1  2  1  0  0  0  0
  2  3  2  0  0  0  0
  2  4  1  0  0  0  0
  3  5  1  0  0  0  0
  3  6  1  0  0  0  0
  7  4  2  0  0  0  0
  5  8  2  0  0  0  0
  8  7  1  0  0  0  0
  7  9  1  0  0  0  0
M  END
>  <Name>
1,2-Benzenediol, 4-methyl- (9CI)

>  <IGC50>
3.37

>  <CAS>
452-86-8

>  <SET>
ws

>  <Species>
Tetrahymena pyriformis

>  <Test duration>
48h

$$$$

  Mrv1808 07152009202D          

 13 13  0  0  0  0            999 V2000
    1.6726    2.9163    0.0000 C   0  0  0  0  0  0  0  0  0  0  0  0
    2.4875    2.9163    0.0000 C   0  0  0  0  0  0  0  0  0  0  0  0
    1.2438    2.2302    0.0000 C   0  0  0  0  0  0  0  0  0  0  0  0
    2.9163    2.2302    0.0000 C   0  0  0  0  0  0  0  0  0  0  0  0
    1.6726    1.4582    0.0000 C   0  0  0  0  0  0  0  0  0  0  0  0
    0.3860    2.2302    0.0000 C   0  0  0  0  0  0  0  0  0  0  0  0
    2.4875    1.4582    0.0000 C   0  0  0  0  0  0  0  0  0  0  0  0
    3.7741    2.2302    0.0000 C   0  0  0  0  0  0  0  0  0  0  0  0
    0.0000    1.4582    0.0000 O   0  0  0  0  0  0  0  0  0  0  0  0
    0.0000    2.9163    0.0000 O   0  0  0  0  0  0  0  0  0  0  0  0
    4.6319    2.2302    0.0000 N   0  0  0  0  0  0  0  0  0  0  0  0
    0.4289    0.7291    0.0000 C   0  0  0  0  0  0  0  0  0  0  0  0
    0.0429    0.0000    0.0000 C   0  0  0  0  0  0  0  0  0  0  0  0
  2  1  2  0  0  0  0
  1  3  1  0  0  0  0
  4  2  1  0  0  0  0
  3  5  2  0  0  0  0
  3  6  1  0  0  0  0
  7  4  2  0  0  0  0
  4  8  1  0  0  0  0
  5  7  1  0  0  0  0
  6  9  1  0  0  0  0
  6 10  2  0  0  0  0
  8 11  3  0  0  0  0
 12  9  1  0  0  0  0
 12 13  1  0  0  0  0
M  END
>  <Name>
Ethyl 4-cyanobenzoate

>  <IGC50>
3.37

>  <CAS>
7153-22-2

>  <SET>
ws

>  <Species>
Tetrahymena pyriformis

>  <Test duration>
48h

$$$$

  Mrv1808 07152009203D          

  9  9  0  0  0  0            999 V2000
    2.9238   -1.5814   -0.0836 Br  0  0  0  0  0  0  0  0  0  0  0  0
    1.4580   -0.3907   -0.0070 C   0  0  0  0  0  0  0  0  0  0  0  0
    0.1719   -0.8798    0.2216 C   0  0  0  0  0  0  0  0  0  0  0  0
    1.6631    0.9781   -0.1804 C   0  0  0  0  0  0  0  0  0  0  0  0
   -0.9093   -0.0001    0.2765 C   0  0  0  0  0  0  0  0  0  0  0  0
    0.5819    1.8577   -0.1255 C   0  0  0  0  0  0  0  0  0  0  0  0
   -2.2843   -0.5231    0.5202 C   0  0  0  0  0  0  0  0  0  0  0  0
   -0.7043    1.3686    0.1029 C   0  0  0  0  0  0  0  0  0  0  0  0
   -2.9009   -0.8294   -0.7245 O   0  0  0  0  0  0  0  0  0  0  0  0
  1  2  1  0  0  0  0
  3  2  1  0  0  0  0
  2  4  2  0  0  0  0
  5  3  2  0  0  0  0
  6  4  1  0  0  0  0
  5  7  1  0  0  0  0
  5  8  1  0  0  0  0
  8  6  2  0  0  0  0
  9  7  1  0  0  0  0
M  END
>  <Name>
(3-bromophenyl)methanol

>  <IGC50>
3.37

>  <CAS>
15852-73-0

>  <SET>
ws

>  <Species>
Tetrahymena pyriformis

>  <Test duration>
48h

$$$$

  Mrv1808 07152009202D          

 11 11  0  0  0  0            999 V2000
    0.7013    1.2375    0.0000 C   0  0  0  0  0  0  0  0  0  0  0  0
    1.4438    1.6500    0.0000 C   0  0  0  0  0  0  0  0  0  0  0  0
    0.7013    0.4125    0.0000 C   0  0  0  0  0  0  0  0  0  0  0  0
    2.1450    1.2375    0.0000 C   0  0  0  0  0  0  0  0  0  0  0  0
    1.4438    2.4338    0.0000 C   0  0  0  0  0  0  0  0  0  0  0  0
    0.0000    0.0000    0.0000 N   0  0  0  0  0  0  0  0  0  0  0  0
    1.4438    0.0000    0.0000 N   0  0  0  0  0  0  0  0  0  0  0  0
    2.1450    0.4125    0.0000 C   0  0  0  0  0  0  0  0  0  0  0  0
    2.8462    1.6500    0.0000 N   0  0  0  0  0  0  0  0  0  0  0  0
    3.5887    1.2375    0.0000 O   0  0  0  0  0  0  0  0  0  0  0  0
    2.8462    2.4338    0.0000 O   0  0  0  0  0  0  0  0  0  0  0  0
  1  2  2  0  0  0  0
  3  1  1  0  0  0  0
  2  4  1  0  0  0  0
  2  5  1  0  0  0  0
  3  6  1  0  0  0  0
  7  3  2  0  0  0  0
  4  8  2  0  0  0  0
  4  9  1  0  0  0  0
  8  7  1  0  0  0  0
  9 10  2  0  0  0  0
  9 11  2  0  0  0  0
M  END
>  <Name>
(4-Methyl-5-nitropyridin-2-yl)amine

>  <IGC50>
3.37

>  <CAS>
21901-40-6

>  <SET>
ws

>  <Species>
Tetrahymena pyriformis

>  <Test duration>
48h

$$$$

  Mrv1808 07152009202D          

  9  9  0  0  0  0            999 V2000
    1.3673   -0.7023    0.0000 C   0  0  0  0  0  0  0  0  0  0  0  0
    0.6529   -0.2898    0.0000 C   0  0  0  0  0  0  0  0  0  0  0  0
    2.0818   -0.2898    0.0000 O   0  0  0  0  0  0  0  0  0  0  0  0
   -0.0616   -0.7023    0.0000 C   0  0  0  0  0  0  0  0  0  0  0  0
   -0.7761   -0.2898    0.0000 C   0  0  0  0  0  0  0  0  0  0  0  0
   -0.8623    0.5307    0.0000 O   0  0  0  0  0  0  0  0  0  0  0  0
   -1.5298   -0.6253    0.0000 C   0  0  0  0  0  0  0  0  0  0  0  0
   -1.6693    0.7023    0.0000 C   0  0  0  0  0  0  0  0  0  0  0  0
   -2.0818   -0.0122    0.0000 C   0  0  0  0  0  0  0  0  0  0  0  0
  1  2  1  0  0  0  0
  1  3  2  0  0  0  0
  2  4  2  0  0  0  0
  4  5  1  0  0  0  0
  6  5  1  0  0  0  0
  5  7  2  0  0  0  0
  6  8  1  0  0  0  0
  7  9  1  0  0  0  0
  9  8  2  0  0  0  0
M  END
>  <Name>
2-Propenal,3-(2-furanyl)-, (E)-

>  <IGC50>
3.37

>  <CAS>
39511-08-5

>  <SET>
ws

>  <Species>
Tetrahymena pyriformis

>  <Test duration>
48h

$$$$

  Mrv1808 07152009202D          

  7  7  0  0  0  0            999 V2000
    0.4151    0.0000    0.0000 C   0  0  0  0  0  0  0  0  0  0  0  0
    0.8025   -0.7208    0.0000 C   0  0  0  0  0  0  0  0  0  0  0  0
    0.8026    0.7208    0.0000 C   0  0  0  0  0  0  0  0  0  0  0  0
   -0.7519    0.0000    0.0000 I   0  0  0  0  0  0  0  0  0  0  0  0
    1.6279   -0.7166    0.0000 C   0  0  0  0  0  0  0  0  0  0  0  0
    1.6279    0.7166    0.0000 C   0  0  0  0  0  0  0  0  0  0  0  0
    2.0367    0.0000    0.0000 C   0  0  0  0  0  0  0  0  0  0  0  0
  1  2  1  0  0  0  0
  1  3  2  0  0  0  0
  1  4  1  0  0  0  0
  2  5  2  0  0  0  0
  6  3  1  0  0  0  0
  5  7  1  0  0  0  0
  7  6  2  0  0  0  0
M  END
>  <Name>
Benzene, iodo-

>  <IGC50>
3.36

>  <CAS>
591-50-4

>  <SET>
ws

>  <Species>
Tetrahymena pyriformis

>  <Test duration>
48h

$$$$

  Mrv1808 07152009202D          

 10  9  0  0  0  0            999 V2000
    2.1751    1.2549    0.0000 C   0  0  0  0  0  0  0  0  0  0  0  0
    1.4221    0.8366    0.0000 C   0  0  0  0  0  0  0  0  0  0  0  0
    2.8862    0.8366    0.0000 C   0  0  0  0  0  0  0  0  0  0  0  0
    0.7111    1.2549    0.0000 C   0  0  0  0  0  0  0  0  0  0  0  0
    1.4221    0.0000    0.0000 O   0  0  0  0  0  0  0  0  0  0  0  0
    3.5973    1.2549    0.0000 C   0  0  0  0  0  0  0  0  0  0  0  0
    0.0000    0.8366    0.0000 C   0  0  0  0  0  0  0  0  0  0  0  0
    4.3502    0.8366    0.0000 C   0  0  0  0  0  0  0  0  0  0  0  0
    5.0612    1.2549    0.0000 C   0  0  0  0  0  0  0  0  0  0  0  0
    5.7724    0.8366    0.0000 C   0  0  0  0  0  0  0  0  0  0  0  0
  1  2  1  0  0  0  0
  1  3  1  0  0  0  0
  2  4  1  0  0  0  0
  2  5  1  0  0  0  0
  3  6  1  0  0  0  0
  4  7  1  0  0  0  0
  6  8  1  0  0  0  0
  8  9  1  0  0  0  0
  9 10  1  0  0  0  0
M  END
>  <Name>
nonan-3-ol

>  <IGC50>
3.36

>  <CAS>
624-51-1

>  <SET>
ws

>  <Species>
Tetrahymena pyriformis

>  <Test duration>
48h

$$$$

  Mrv1808 07152009202D          

 10 10  0  0  0  0            999 V2000
    0.0000    1.4438    0.0000 C   0  0  0  0  0  0  0  0  0  0  0  0
    0.8250    1.4438    0.0000 C   0  0  0  0  0  0  0  0  0  0  0  0
    1.2375    2.1450    0.0000 C   0  0  0  0  0  0  0  0  0  0  0  0
    1.2375    0.7425    0.0000 C   0  0  0  0  0  0  0  0  0  0  0  0
    0.8250    2.8876    0.0000 C   0  0  0  0  0  0  0  0  0  0  0  0
    2.0626    2.1450    0.0000 C   0  0  0  0  0  0  0  0  0  0  0  0
    0.8250    0.0000    0.0000 O   0  0  0  0  0  0  0  0  0  0  0  0
    2.0626    0.7425    0.0000 C   0  0  0  0  0  0  0  0  0  0  0  0
    2.4751    1.4438    0.0000 C   0  0  0  0  0  0  0  0  0  0  0  0
    3.3001    1.4438    0.0000 C   0  0  0  0  0  0  0  0  0  0  0  0
  1  2  1  0  0  0  0
  3  2  2  0  0  0  0
  2  4  1  0  0  0  0
  3  5  1  0  0  0  0
  6  3  1  0  0  0  0
  4  7  1  0  0  0  0
  4  8  2  0  0  0  0
  9  6  2  0  0  0  0
  8  9  1  0  0  0  0
  9 10  1  0  0  0  0
M  END
>  <Name>
Phenol, 2,3,5-trimethyl-

>  <IGC50>
3.36

>  <CAS>
697-82-5

>  <SET>
ws

>  <Species>
Tetrahymena pyriformis

>  <Test duration>
48h

$$$$

  Mrv1808 07152009202D          

 19 19  0  0  0  0            999 V2000
    1.6489   -3.5677    0.0000 O   0  0  0  0  0  0  0  0  0  0  0  0
    2.0601   -2.8568    0.0000 C   0  0  0  0  0  0  0  0  0  0  0  0
    1.6489   -2.1415    0.0000 C   0  0  0  0  0  0  0  0  0  0  0  0
    2.8868   -2.8568    0.0000 C   0  0  0  0  0  0  0  0  0  0  0  0
    2.0601   -1.4262    0.0000 C   0  0  0  0  0  0  0  0  0  0  0  0
    0.8224   -2.1415    0.0000 C   0  0  0  0  0  0  0  0  0  0  0  0
    3.2979   -2.1415    0.0000 C   0  0  0  0  0  0  0  0  0  0  0  0
    3.2979   -3.5677    0.0000 C   0  0  0  0  0  0  0  0  0  0  0  0
    2.8868   -1.4262    0.0000 C   0  0  0  0  0  0  0  0  0  0  0  0
    0.8224   -2.9638    0.0000 C   0  0  0  0  0  0  0  0  0  0  0  0
    0.0000   -2.1415    0.0000 C   0  0  0  0  0  0  0  0  0  0  0  0
    0.8224   -1.3192    0.0000 C   0  0  0  0  0  0  0  0  0  0  0  0
    3.7091   -4.2830    0.0000 C   0  0  0  0  0  0  0  0  0  0  0  0
    2.5826   -3.9832    0.0000 C   0  0  0  0  0  0  0  0  0  0  0  0
    4.0089   -3.1565    0.0000 C   0  0  0  0  0  0  0  0  0  0  0  0
    3.2979   -0.7153    0.0000 C   0  0  0  0  0  0  0  0  0  0  0  0
    4.0089   -1.1264    0.0000 C   0  0  0  0  0  0  0  0  0  0  0  0
    2.5826   -0.2998    0.0000 C   0  0  0  0  0  0  0  0  0  0  0  0
    3.7091    0.0000    0.0000 C   0  0  0  0  0  0  0  0  0  0  0  0
  1  2  1  0  0  0  0
  2  3  2  0  0  0  0
  2  4  1  0  0  0  0
  3  5  1  0  0  0  0
  3  6  1  0  0  0  0
  7  4  2  0  0  0  0
  4  8  1  0  0  0  0
  5  9  2  0  0  0  0
  6 10  1  0  0  0  0
  6 11  1  0  0  0  0
  6 12  1  0  0  0  0
  9  7  1  0  0  0  0
  8 13  1  0  0  0  0
  8 14  1  0  0  0  0
  8 15  1  0  0  0  0
  9 16  1  0  0  0  0
 16 17  1  0  0  0  0
 16 18  1  0  0  0  0
 16 19  1  0  0  0  0
M  END
>  <Name>
Phenol, 2,4,6-tri-tert-butyl- (6CI,7CI,8CI)

>  <IGC50>
3.36

>  <CAS>
732-26-3

>  <SET>
ws

>  <Species>
Tetrahymena pyriformis

>  <Test duration>
48h

$$$$

  Mrv1808 07152009202D          

  8  7  0  0  0  0            999 V2000
    1.2375    1.3750    0.0000 C   0  0  0  0  0  0  0  0  0  0  0  0
    1.3750    0.5500    0.0000 N   0  0  0  0  0  0  0  0  0  0  0  0
    2.0625    1.3750    0.0000 C   0  0  0  0  0  0  0  0  0  0  0  0
    0.4675    1.1000    0.0000 C   0  0  0  0  0  0  0  0  0  0  0  0
    0.8250    2.0900    0.0000 C   0  0  0  0  0  0  0  0  0  0  0  0
    2.1450    0.2750    0.0000 C   0  0  0  0  0  0  0  0  0  0  0  0
    0.0000    2.0900    0.0000 C   0  0  0  0  0  0  0  0  0  0  0  0
    2.9150    0.0000    0.0000 S   0  0  0  0  0  0  0  0  0  0  0  0
  1  2  1  0  0  0  0
  1  3  1  0  0  0  0
  1  4  1  0  0  0  0
  1  5  1  0  0  0  0
  2  6  2  0  0  0  0
  5  7  1  0  0  0  0
  6  8  2  0  0  0  0
M  END
>  <Name>
Neopentyl isothiocyanate

>  <IGC50>
3.353

>  <CAS>
597-97-7

>  <SET>
ws

>  <Species>
Tetrahymena pyriformis

>  <Test duration>
48h

$$$$

  Mrv1808 07152009202D          

  9  8  0  0  0  0            999 V2000
    0.0000   -0.4118    0.0000 C   0  0  0  0  0  0  0  0  0  0  0  0
    0.7149    0.0000    0.0000 C   0  0  0  0  0  0  0  0  0  0  0  0
    1.4298   -0.4118    0.0000 C   0  0  0  0  0  0  0  0  0  0  0  0
    2.1447    0.0000    0.0000 C   0  0  0  0  0  0  0  0  0  0  0  0
    2.8595   -0.4118    0.0000 C   0  0  0  0  0  0  0  0  0  0  0  0
    3.5744    0.0000    0.0000 C   0  0  0  0  0  0  0  0  0  0  0  0
    4.2893   -0.4118    0.0000 C   0  0  0  0  0  0  0  0  0  0  0  0
    5.0042    0.0000    0.0000 C   0  0  0  0  0  0  0  0  0  0  0  0
    5.7191   -0.4118    0.0000 N   0  0  0  0  0  0  0  0  0  0  0  0
  1  2  1  0  0  0  0
  2  3  1  0  0  0  0
  3  4  1  0  0  0  0
  4  5  1  0  0  0  0
  5  6  1  0  0  0  0
  6  7  1  0  0  0  0
  7  8  1  0  0  0  0
  8  9  1  0  0  0  0
M  END
>  <Name>
1-Octanamine

>  <IGC50>
3.351

>  <CAS>
111-86-4

>  <SET>
ws

>  <Species>
Tetrahymena pyriformis

>  <Test duration>
48h

$$$$

  Mrv1808 07152009202D          

 11 10  0  0  0  0            999 V2000
    0.0000   -1.6528    0.0000 C   0  0  0  0  0  0  0  0  0  0  0  0
    0.7149   -1.2410    0.0000 C   0  0  0  0  0  0  0  0  0  0  0  0
    1.4298   -1.6528    0.0000 C   0  0  0  0  0  0  0  0  0  0  0  0
    2.1447   -1.2410    0.0000 C   0  0  0  0  0  0  0  0  0  0  0  0
    2.8595   -1.6528    0.0000 C   0  0  0  0  0  0  0  0  0  0  0  0
    3.5744   -1.2410    0.0000 C   0  0  0  0  0  0  0  0  0  0  0  0
    4.2893   -1.6528    0.0000 C   0  0  0  0  0  0  0  0  0  0  0  0
    5.0041   -1.2410    0.0000 C   0  0  0  0  0  0  0  0  0  0  0  0
    5.0041   -0.4118    0.0000 C   0  0  0  0  0  0  0  0  0  0  0  0
    4.2893    0.0000    0.0000 O   0  0  0  0  0  0  0  0  0  0  0  0
    5.7190    0.0000    0.0000 O   0  0  0  0  0  0  0  0  0  0  0  0
  1  2  1  0  0  0  0
  2  3  1  0  0  0  0
  3  4  1  0  0  0  0
  4  5  1  0  0  0  0
  5  6  1  0  0  0  0
  6  7  1  0  0  0  0
  7  8  1  0  0  0  0
  8  9  1  0  0  0  0
  9 10  1  0  0  0  0
  9 11  2  0  0  0  0
M  END
>  <Name>
Nonanoic acid

>  <IGC50>
3.351

>  <CAS>
112-05-0

>  <SET>
ws

>  <Species>
Tetrahymena pyriformis

>  <Test duration>
48h

$$$$

  Mrv1808 07152009202D          

  8  8  0  0  0  0            999 V2000
    0.0000    1.4438    0.0000 I   0  0  0  0  0  0  0  0  0  0  0  0
    0.8250    1.4438    0.0000 C   0  0  0  0  0  0  0  0  0  0  0  0
    1.2375    0.7012    0.0000 C   0  0  0  0  0  0  0  0  0  0  0  0
    1.2375    2.1450    0.0000 C   0  0  0  0  0  0  0  0  0  0  0  0
    0.8250    0.0000    0.0000 N   0  0  0  0  0  0  0  0  0  0  0  0
    2.0625    0.7012    0.0000 C   0  0  0  0  0  0  0  0  0  0  0  0
    2.0625    2.1450    0.0000 C   0  0  0  0  0  0  0  0  0  0  0  0
    2.4750    1.4438    0.0000 C   0  0  0  0  0  0  0  0  0  0  0  0
  1  2  1  0  0  0  0
  2  3  2  0  0  0  0
  4  2  1  0  0  0  0
  3  5  1  0  0  0  0
  3  6  1  0  0  0  0
  7  4  2  0  0  0  0
  6  8  2  0  0  0  0
  8  7  1  0  0  0  0
M  END
>  <Name>
Benzenamine, 2-iodo-

>  <IGC50>
3.35

>  <CAS>
615-43-0

>  <SET>
ws

>  <Species>
Tetrahymena pyriformis

>  <Test duration>
48h

$$$$

  Mrv1808 07152009203D          

  8  8  0  0  0  0            999 V2000
    0.0000    0.0000    0.0000 Br  0  0  0  0  0  0  0  0  0  0  0  0
   -1.8800   -0.0400    0.0600 C   0  0  0  0  0  0  0  0  0  0  0  0
   -2.6000    1.1400    0.3400 C   0  0  0  0  0  0  0  0  0  0  0  0
   -2.5600   -1.2400   -0.1800 C   0  0  0  0  0  0  0  0  0  0  0  0
   -4.0000    1.1200    0.3800 C   0  0  0  0  0  0  0  0  0  0  0  0
   -3.9800   -1.2600   -0.1400 C   0  0  0  0  0  0  0  0  0  0  0  0
   -4.7000   -0.0800    0.1400 C   0  0  0  0  0  0  0  0  0  0  0  0
   -6.7400   -0.1200    0.2000 I   0  0  0  0  0  0  0  0  0  0  0  0
  1  2  1  0  0  0  0
  3  2  2  0  0  0  0
  2  4  1  0  0  0  0
  5  3  1  0  0  0  0
  6  4  2  0  0  0  0
  7  5  2  0  0  0  0
  7  6  1  0  0  0  0
  8  7  1  0  0  0  0
M  END
>  <Name>
1-bromo-4-iodobenzene

>  <IGC50>
3.35

>  <CAS>
589-87-7

>  <SET>
ws

>  <Species>
Tetrahymena pyriformis

>  <Test duration>
48h

$$$$

  Mrv1808 07152009202D          

  8  7  0  0  0  0            999 V2000
    1.4640    1.2548    0.0000 C   0  0  0  0  0  0  0  0  0  0  0  0
    2.1750    0.8366    0.0000 C   0  0  0  0  0  0  0  0  0  0  0  0
    0.7110    0.8366    0.0000 C   0  0  0  0  0  0  0  0  0  0  0  0
    2.8862    1.2548    0.0000 C   0  0  0  0  0  0  0  0  0  0  0  0
    0.7110    0.0000    0.0000 Cl  0  0  0  0  0  0  0  0  0  0  0  0
    0.0000    1.2548    0.0000 O   0  0  0  0  0  0  0  0  0  0  0  0
    3.6390    0.8366    0.0000 C   0  0  0  0  0  0  0  0  0  0  0  0
    4.3501    1.2548    0.0000 C   0  0  0  0  0  0  0  0  0  0  0  0
  1  2  1  0  0  0  0
  1  3  1  0  0  0  0
  2  4  1  0  0  0  0
  3  5  1  0  0  0  0
  3  6  2  0  0  0  0
  4  7  1  0  0  0  0
  7  8  1  0  0  0  0
M  END
>  <Name>
Hexanoyl chloride

>  <IGC50>
3.34

>  <CAS>
142-61-0

>  <SET>
ws

>  <Species>
Tetrahymena pyriformis

>  <Test duration>
48h

$$$$

  Mrv1808 07152009202D          

 10 10  0  0  0  0            999 V2000
    2.1750    2.9279    0.0000 O   0  0  0  0  0  0  0  0  0  0  0  0
    1.4640    2.5096    0.0000 C   0  0  0  0  0  0  0  0  0  0  0  0
    1.4640    1.6731    0.0000 C   0  0  0  0  0  0  0  0  0  0  0  0
    0.7529    1.2548    0.0000 C   0  0  0  0  0  0  0  0  0  0  0  0
    2.1750    1.2548    0.0000 C   0  0  0  0  0  0  0  0  0  0  0  0
    0.0000    1.6731    0.0000 O   0  0  0  0  0  0  0  0  0  0  0  0
    0.7529    0.4183    0.0000 C   0  0  0  0  0  0  0  0  0  0  0  0
    2.1750    0.4183    0.0000 C   0  0  0  0  0  0  0  0  0  0  0  0
    1.4640    0.0000    0.0000 C   0  0  0  0  0  0  0  0  0  0  0  0
    2.9279    0.0000    0.0000 Br  0  0  0  0  0  0  0  0  0  0  0  0
  1  2  1  0  0  0  0
  2  3  1  0  0  0  0
  4  3  2  0  0  0  0
  3  5  1  0  0  0  0
  4  6  1  0  0  0  0
  7  4  1  0  0  0  0
  5  8  2  0  0  0  0
  9  7  2  0  0  0  0
  8  9  1  0  0  0  0
  8 10  1  0  0  0  0
M  END
>  <Name>
4-bromo-2-(hydroxymethyl)phenol

>  <IGC50>
3.34

>  <CAS>
2316-64-5

>  <SET>
ws

>  <Species>
Tetrahymena pyriformis

>  <Test duration>
48h

$$$$

  Mrv1808 07152009203D          

 10  9  0  0  0  0            999 V2000
    7.0021    1.4652    1.3894 C   0  0  0  0  0  0  0  0  0  0  0  0
    5.6723    1.0004    1.0946 C   0  0  0  0  0  0  0  0  0  0  0  0
    8.1057    1.8435    1.6371 C   0  0  0  0  0  0  0  0  0  0  0  0
    4.6151    1.9726    1.6061 C   0  0  0  0  0  0  0  0  0  0  0  0
    9.4420    2.2852    1.9346 C   0  0  0  0  0  0  0  0  0  0  0  0
    3.2172    1.4122    1.4000 C   0  0  0  0  0  0  0  0  0  0  0  0
    9.6121    3.7666    1.5826 C   0  0  0  0  0  0  0  0  0  0  0  0
    2.1536    2.3824    1.8882 C   0  0  0  0  0  0  0  0  0  0  0  0
   10.9397    4.1187    1.8991 O   0  0  0  0  0  0  0  0  0  0  0  0
    0.7663    1.7973    1.7495 C   0  0  0  0  0  0  0  0  0  0  0  0
  1  2  1  0  0  0  0
  1  3  3  0  0  0  0
  2  4  1  0  0  0  0
  3  5  1  0  0  0  0
  4  6  1  0  0  0  0
  5  7  1  0  0  0  0
  6  8  1  0  0  0  0
  7  9  1  0  0  0  0
  8 10  1  0  0  0  0
M  END
>  <Name>
Non-3-yn-1-ol

>  <IGC50>
3.34

>  <CAS>
31333-13-8

>  <SET>
ws

>  <Species>
Tetrahymena pyriformis

>  <Test duration>
48h

$$$$

  Mrv1808 07152009202D          

  8  8  0  0  0  0            999 V2000
    1.2548    2.1750    0.0000 C   0  0  0  0  0  0  0  0  0  0  0  0
    0.8365    1.4639    0.0000 C   0  0  0  0  0  0  0  0  0  0  0  0
    2.0914    2.1750    0.0000 C   0  0  0  0  0  0  0  0  0  0  0  0
    1.2129    0.7529    0.0000 C   0  0  0  0  0  0  0  0  0  0  0  0
    0.0000    1.4639    0.0000 O   0  0  0  0  0  0  0  0  0  0  0  0
    2.5096    1.4639    0.0000 C   0  0  0  0  0  0  0  0  0  0  0  0
    2.0914    0.7529    0.0000 C   0  0  0  0  0  0  0  0  0  0  0  0
    0.7947    0.0000    0.0000 Br  0  0  0  0  0  0  0  0  0  0  0  0
  1  2  2  0  0  0  0
  3  1  1  0  0  0  0
  2  4  1  0  0  0  0
  2  5  1  0  0  0  0
  6  3  2  0  0  0  0
  4  7  2  0  0  0  0
  4  8  1  0  0  0  0
  7  6  1  0  0  0  0
M  END
>  <Name>
Phenol, 2-bromo-

>  <IGC50>
3.33

>  <CAS>
95-56-7

>  <SET>
ws

>  <Species>
Tetrahymena pyriformis

>  <Test duration>
48h

$$$$

  Mrv1808 07152009202D          

 11 11  0  0  0  0            999 V2000
    2.4679    0.7111    0.0000 C   0  0  0  0  0  0  0  0  0  0  0  0
    1.6313    0.7111    0.0000 C   0  0  0  0  0  0  0  0  0  0  0  0
    2.8862    1.4222    0.0000 C   0  0  0  0  0  0  0  0  0  0  0  0
    1.2549    1.4222    0.0000 C   0  0  0  0  0  0  0  0  0  0  0  0
    1.2130    0.0000    0.0000 F   0  0  0  0  0  0  0  0  0  0  0  0
    2.4679    2.1333    0.0000 C   0  0  0  0  0  0  0  0  0  0  0  0
    1.6313    2.1333    0.0000 C   0  0  0  0  0  0  0  0  0  0  0  0
    0.4183    1.4222    0.0000 N   0  0  0  0  0  0  0  0  0  0  0  0
    2.8443    2.8443    0.0000 F   0  0  0  0  0  0  0  0  0  0  0  0
    0.0000    0.7111    0.0000 O   0  0  0  0  0  0  0  0  0  0  0  0
    0.0000    2.0915    0.0000 O   0  0  0  0  0  0  0  0  0  0  0  0
  2  1  2  0  0  0  0
  1  3  1  0  0  0  0
  4  2  1  0  0  0  0
  2  5  1  0  0  0  0
  3  6  2  0  0  0  0
  7  4  2  0  0  0  0
  4  8  1  0  0  0  0
  6  7  1  0  0  0  0
  6  9  1  0  0  0  0
  8 10  2  0  0  0  0
  8 11  2  0  0  0  0
M  END
>  <Name>
Benzene, 1,4-difluoro-2-nitro-

>  <IGC50>
3.33

>  <CAS>
364-74-9

>  <SET>
ws

>  <Species>
Tetrahymena pyriformis

>  <Test duration>
48h

$$$$

  Mrv1808 07152009203D          

 11 11  0  0  0  0            999 V2000
   -2.1270    1.8868   -0.0015 F   0  0  0  0  0  0  0  0  0  0  0  0
   -1.3133    0.8216    0.0007 C   0  0  0  0  0  0  0  0  0  0  0  0
   -1.8404   -0.4698    0.0000 C   0  0  0  0  0  0  0  0  0  0  0  0
    0.0686    1.0109    0.0012 C   0  0  0  0  0  0  0  0  0  0  0  0
   -0.9855   -1.5720    0.0000 C   0  0  0  0  0  0  0  0  0  0  0  0
   -3.3175   -0.6760   -0.0002 C   0  0  0  0  0  0  0  0  0  0  0  0
    0.9235   -0.0913    0.0009 C   0  0  0  0  0  0  0  0  0  0  0  0
    0.3964   -1.3828    0.0003 C   0  0  0  0  0  0  0  0  0  0  0  0
    2.3301    0.1022    0.0000 N   0  3  0  0  0  0  0  0  0  0  0  0
    3.0822   -0.9022   -0.0014 O   0  5  0  0  0  0  0  0  0  0  0  0
    2.7830    1.2726    0.0001 O   0  0  0  0  0  0  0  0  0  0  0  0
  1  2  1  0  0  0  0
  3  2  2  0  0  0  0
  2  4  1  0  0  0  0
  3  5  1  0  0  0  0
  3  6  1  0  0  0  0
  7  4  2  0  0  0  0
  5  8  2  0  0  0  0
  9  7  1  0  0  0  0
  7  8  1  0  0  0  0
 10  9  1  0  0  0  0
 11  9  2  0  0  0  0
M  CHG  2   9   1  10  -1
M  END
>  <Name>
2-fluoro-1-methyl-4-nitrobenzene

>  <IGC50>
3.33

>  <CAS>
1427-07-2

>  <SET>
ws

>  <Species>
Tetrahymena pyriformis

>  <Test duration>
48h

$$$$

  Mrv1808 07152009202D          

 10 10  0  0  0  0            999 V2000
    3.7164   -2.1443    0.0000 C   0  0  0  0  0  0  0  0  0  0  0  0
    2.8914   -2.1443    0.0000 C   0  0  0  0  0  0  0  0  0  0  0  0
    2.4788   -1.4308    0.0000 C   0  0  0  0  0  0  0  0  0  0  0  0
    1.6501   -1.4308    0.0000 C   0  0  0  0  0  0  0  0  0  0  0  0
    1.2375   -2.1443    0.0000 C   0  0  0  0  0  0  0  0  0  0  0  0
    1.2375   -0.7135    0.0000 C   0  0  0  0  0  0  0  0  0  0  0  0
    0.4125   -2.1443    0.0000 C   0  0  0  0  0  0  0  0  0  0  0  0
    0.4125   -0.7135    0.0000 C   0  0  0  0  0  0  0  0  0  0  0  0
    1.6501    0.0000    0.0000 O   0  0  0  0  0  0  0  0  0  0  0  0
    0.0000   -1.4308    0.0000 C   0  0  0  0  0  0  0  0  0  0  0  0
  1  2  2  0  0  0  0
  2  3  1  0  0  0  0
  3  4  1  0  0  0  0
  4  5  2  0  0  0  0
  4  6  1  0  0  0  0
  5  7  1  0  0  0  0
  8  6  2  0  0  0  0
  6  9  1  0  0  0  0
  7 10  2  0  0  0  0
 10  8  1  0  0  0  0
M  END
>  <Name>
Phenol, 2-(2-propenyl)-

>  <IGC50>
3.33

>  <CAS>
1745-81-9

>  <SET>
ws

>  <Species>
Tetrahymena pyriformis

>  <Test duration>
48h

$$$$

  Mrv1808 07152009202D          

  9  9  0  0  0  0            999 V2000
    2.4680    0.7111    0.0000 C   0  0  0  0  0  0  0  0  0  0  0  0
    1.6313    0.7111    0.0000 C   0  0  0  0  0  0  0  0  0  0  0  0
    2.8863    1.4222    0.0000 C   0  0  0  0  0  0  0  0  0  0  0  0
    1.2549    1.4222    0.0000 C   0  0  0  0  0  0  0  0  0  0  0  0
    1.2549    0.0000    0.0000 I   0  0  0  0  0  0  0  0  0  0  0  0
    2.4680    2.1333    0.0000 C   0  0  0  0  0  0  0  0  0  0  0  0
    1.6313    2.1333    0.0000 C   0  0  0  0  0  0  0  0  0  0  0  0
    0.4183    1.4222    0.0000 C   0  0  0  0  0  0  0  0  0  0  0  0
    0.0000    0.7111    0.0000 O   0  0  0  0  0  0  0  0  0  0  0  0
  2  1  2  0  0  0  0
  1  3  1  0  0  0  0
  4  2  1  0  0  0  0
  2  5  1  0  0  0  0
  3  6  2  0  0  0  0
  7  4  2  0  0  0  0
  4  8  1  0  0  0  0
  6  7  1  0  0  0  0
  8  9  1  0  0  0  0
M  END
>  <Name>
Benzenemethanol, 2-iodo-

>  <IGC50>
3.33

>  <CAS>
5159-41-1

>  <SET>
ws

>  <Species>
Tetrahymena pyriformis

>  <Test duration>
48h

$$$$

  Mrv1808 07152009202D          

 12 12  0  0  0  0            999 V2000
    2.0603   -1.4266    0.0000 C   0  0  0  0  0  0  0  0  0  0  0  0
    2.4716   -0.7152    0.0000 C   0  0  0  0  0  0  0  0  0  0  0  0
    2.4716   -2.1418    0.0000 C   0  0  0  0  0  0  0  0  0  0  0  0
    1.2339   -1.4266    0.0000 C   0  0  0  0  0  0  0  0  0  0  0  0
    2.0603    0.0000    0.0000 O   0  0  0  0  0  0  0  0  0  0  0  0
    3.2942   -2.1418    0.0000 N   0  3  0  0  0  0  0  0  0  0  0  0
    2.0603   -2.8532    0.0000 C   0  0  0  0  0  0  0  0  0  0  0  0
    0.8226   -2.1418    0.0000 C   0  0  0  0  0  0  0  0  0  0  0  0
    3.7055   -2.8532    0.0000 O   0  0  0  0  0  0  0  0  0  0  0  0
    3.7055   -1.4266    0.0000 O   0  5  0  0  0  0  0  0  0  0  0  0
    1.2339   -2.8532    0.0000 C   0  0  0  0  0  0  0  0  0  0  0  0
    0.0000   -2.1418    0.0000 O   0  0  0  0  0  0  0  0  0  0  0  0
  1  2  1  0  0  0  0
  1  3  2  0  0  0  0
  1  4  1  0  0  0  0
  2  5  2  0  0  0  0
  3  6  1  0  0  0  0
  3  7  1  0  0  0  0
  8  4  2  0  0  0  0
  6  9  2  0  0  0  0
  6 10  1  0  0  0  0
  7 11  2  0  0  0  0
 11  8  1  0  0  0  0
  8 12  1  0  0  0  0
M  CHG  2   6   1  10  -1
M  END
>  <Name>
Benzaldehyde, 5-hydroxy-2-nitro-

>  <IGC50>
3.33

>  <CAS>
42454-06-8

>  <SET>
ws

>  <Species>
Tetrahymena pyriformis

>  <Test duration>
48h

$$$$

  Mrv1808 07152009202D          

 12 12  0  0  0  0            999 V2000
    0.7152   -2.4712    0.0000 O   0  0  0  0  0  0  0  0  0  0  0  0
    0.7152   -1.6489    0.0000 C   0  0  0  0  0  0  0  0  0  0  0  0
    1.4262   -1.2335    0.0000 C   0  0  0  0  0  0  0  0  0  0  0  0
    0.0000   -1.2335    0.0000 C   0  0  0  0  0  0  0  0  0  0  0  0
    1.4262   -0.4112    0.0000 C   0  0  0  0  0  0  0  0  0  0  0  0
    2.1414   -1.6489    0.0000 C   0  0  0  0  0  0  0  0  0  0  0  0
    2.1414    0.0000    0.0000 C   0  0  0  0  0  0  0  0  0  0  0  0
    2.8566   -1.2335    0.0000 C   0  0  0  0  0  0  0  0  0  0  0  0
    2.8566   -0.4112    0.0000 C   0  0  0  0  0  0  0  0  0  0  0  0
    3.5676   -1.6489    0.0000 N   0  3  0  0  0  0  0  0  0  0  0  0
    4.2828   -1.2335    0.0000 O   0  5  0  0  0  0  0  0  0  0  0  0
    3.5676   -2.4712    0.0000 O   0  0  0  0  0  0  0  0  0  0  0  0
  1  2  2  0  0  0  0
  2  3  1  0  0  0  0
  2  4  1  0  0  0  0
  3  5  2  0  0  0  0
  3  6  1  0  0  0  0
  5  7  1  0  0  0  0
  8  6  2  0  0  0  0
  7  9  2  0  0  0  0
  9  8  1  0  0  0  0
  8 10  1  0  0  0  0
 10 11  1  0  0  0  0
 10 12  2  0  0  0  0
M  CHG  2  10   1  11  -1
M  END
>  <Name>
Ethanone, 1-(3-nitrophenyl)-

>  <IGC50>
3.32

>  <CAS>
121-89-1

>  <SET>
ws

>  <Species>
Tetrahymena pyriformis

>  <Test duration>
48h

$$$$

  Mrv1808 07152009202D          

 10 10  0  0  0  0            999 V2000
    0.0000    0.7111    0.0000 Cl  0  0  0  0  0  0  0  0  0  0  0  0
    0.8366    0.7111    0.0000 C   0  0  0  0  0  0  0  0  0  0  0  0
    1.2549    1.4221    0.0000 C   0  0  0  0  0  0  0  0  0  0  0  0
    1.2549    0.0000    0.0000 C   0  0  0  0  0  0  0  0  0  0  0  0
    2.0914    1.4221    0.0000 C   0  0  0  0  0  0  0  0  0  0  0  0
    2.0914    0.0000    0.0000 C   0  0  0  0  0  0  0  0  0  0  0  0
    2.5096    0.7111    0.0000 C   0  0  0  0  0  0  0  0  0  0  0  0
    3.2207    1.1294    0.0000 C   0  0  0  0  0  0  0  0  0  0  0  0
    3.9318    0.7111    0.0000 C   0  0  0  0  0  0  0  0  0  0  0  0
    4.6847    1.1294    0.0000 O   0  0  0  0  0  0  0  0  0  0  0  0
  1  2  1  0  0  0  0
  2  3  2  0  0  0  0
  4  2  1  0  0  0  0
  3  5  1  0  0  0  0
  6  4  2  0  0  0  0
  5  7  2  0  0  0  0
  7  6  1  0  0  0  0
  8  7  1  0  0  0  0
  9  8  1  0  0  0  0
 10  9  1  0  0  0  0
M  END
>  <Name>
p-Chlorophenethylic alcohol

>  <IGC50>
3.32

>  <CAS>
1875-88-3

>  <SET>
ws

>  <Species>
Tetrahymena pyriformis

>  <Test duration>
48h

$$$$

  Mrv1808 07152009202D          

 11 11  0  0  0  0            999 V2000
    1.4282   -0.8250    0.0000 C   0  0  0  0  0  0  0  0  0  0  0  0
    2.1308   -1.2404    0.0000 C   0  0  0  0  0  0  0  0  0  0  0  0
    0.7141   -1.2404    0.0000 C   0  0  0  0  0  0  0  0  0  0  0  0
    1.4282    0.0000    0.0000 N   0  0  0  0  0  0  0  0  0  0  0  0
    2.1308   -2.0626    0.0000 C   0  0  0  0  0  0  0  0  0  0  0  0
    2.8450   -0.8250    0.0000 C   0  0  0  0  0  0  0  0  0  0  0  0
    0.7141   -2.0626    0.0000 C   0  0  0  0  0  0  0  0  0  0  0  0
    0.0000   -0.8250    0.0000 C   0  0  0  0  0  0  0  0  0  0  0  0
    1.4282   -2.4694    0.0000 C   0  0  0  0  0  0  0  0  0  0  0  0
    2.8450    0.0000    0.0000 C   0  0  0  0  0  0  0  0  0  0  0  0
    0.0000    0.0000    0.0000 C   0  0  0  0  0  0  0  0  0  0  0  0
  1  2  2  0  0  0  0
  1  3  1  0  0  0  0
  1  4  1  0  0  0  0
  2  5  1  0  0  0  0
  2  6  1  0  0  0  0
  7  3  2  0  0  0  0
  3  8  1  0  0  0  0
  5  9  2  0  0  0  0
  6 10  1  0  0  0  0
  9  7  1  0  0  0  0
  8 11  1  0  0  0  0
M  END
>  <Name>
Benzenamine, 2,6-diethyl-

>  <IGC50>
3.31

>  <CAS>
579-66-8

>  <SET>
ws

>  <Species>
Tetrahymena pyriformis

>  <Test duration>
48h

$$$$

  Mrv1808 07152009202D          

 10 10  0  0  0  0            999 V2000
    0.4183    0.7110    0.0000 C   0  0  0  0  0  0  0  0  0  0  0  0
    0.8366    1.4221    0.0000 C   0  0  0  0  0  0  0  0  0  0  0  0
    0.0000    0.0000    0.0000 N   0  0  0  0  0  0  0  0  0  0  0  0
    0.4183    2.1332    0.0000 O   0  0  0  0  0  0  0  0  0  0  0  0
    1.6731    1.4221    0.0000 C   0  0  0  0  0  0  0  0  0  0  0  0
    2.0914    2.1332    0.0000 C   0  0  0  0  0  0  0  0  0  0  0  0
    2.0914    0.7110    0.0000 C   0  0  0  0  0  0  0  0  0  0  0  0
    2.9279    2.1332    0.0000 C   0  0  0  0  0  0  0  0  0  0  0  0
    2.9279    0.7110    0.0000 C   0  0  0  0  0  0  0  0  0  0  0  0
    3.3461    1.4221    0.0000 C   0  0  0  0  0  0  0  0  0  0  0  0
  1  2  1  0  0  0  0
  1  3  3  0  0  0  0
  2  4  2  0  0  0  0
  2  5  1  0  0  0  0
  6  5  2  0  0  0  0
  5  7  1  0  0  0  0
  8  6  1  0  0  0  0
  7  9  2  0  0  0  0
 10  8  2  0  0  0  0
  9 10  1  0  0  0  0
M  END
>  <Name>
Glyoxylonitrile, phenyl- (8CI)

>  <IGC50>
3.31

>  <CAS>
613-90-1

>  <SET>
ws

>  <Species>
Tetrahymena pyriformis

>  <Test duration>
48h

$$$$

  Mrv1808 07152009203D          

 11 11  0  0  0  0            999 V2000
    1.2922   -2.1193   -0.0024 O   0  0  0  0  0  0  0  0  0  0  0  0
    0.2517   -1.2388    0.0009 C   0  0  0  0  0  0  0  0  0  0  0  0
    0.4789    0.1373    0.0010 C   0  0  0  0  0  0  0  0  0  0  0  0
   -1.0537   -1.7302    0.0006 C   0  0  0  0  0  0  0  0  0  0  0  0
   -0.5994    1.0222    0.0008 C   0  0  0  0  0  0  0  0  0  0  0  0
    1.8338    0.6711    0.0001 C   0  0  0  0  0  0  0  0  0  0  0  0
   -2.1320   -0.8455    0.0001 C   0  0  0  0  0  0  0  0  0  0  0  0
   -1.9049    0.5307    0.0003 C   0  0  0  0  0  0  0  0  0  0  0  0
    2.8275   -0.0810    0.0008 O   0  0  0  0  0  0  0  0  0  0  0  0
    2.0645    2.1774   -0.0010 C   0  0  0  0  0  0  0  0  0  0  0  0
   -3.0584    1.4760   -0.0013 C   0  0  0  0  0  0  0  0  0  0  0  0
  1  2  1  0  0  0  0
  3  2  2  0  0  0  0
  2  4  1  0  0  0  0
  3  5  1  0  0  0  0
  3  6  1  0  0  0  0
  7  4  2  0  0  0  0
  8  5  2  0  0  0  0
  9  6  2  0  0  0  0
  6 10  1  0  0  0  0
  8  7  1  0  0  0  0
  8 11  1  0  0  0  0
M  END
>  <Name>
1-(2-hydroxy-5-methylphenyl)ethanone

>  <IGC50>
3.31

>  <CAS>
1450-72-2

>  <SET>
ws

>  <Species>
Tetrahymena pyriformis

>  <Test duration>
48h

$$$$

  Mrv1808 07152009202D          

 12 12  0  0  0  0            999 V2000
    2.6814    2.2689    0.0000 O   0  0  0  0  0  0  0  0  0  0  0  0
    2.1038    1.6501    0.0000 S   0  0  0  0  0  0  0  0  0  0  0  0
    1.4851    2.2689    0.0000 O   0  0  0  0  0  0  0  0  0  0  0  0
    1.3613    1.2375    0.0000 C   0  0  0  0  0  0  0  0  0  0  0  0
    2.8052    1.2375    0.0000 C   0  0  0  0  0  0  0  0  0  0  0  0
    0.6600    1.6501    0.0000 C   0  0  0  0  0  0  0  0  0  0  0  0
    3.5477    1.6501    0.0000 C   0  0  0  0  0  0  0  0  0  0  0  0
    2.8052    0.4125    0.0000 C   0  0  0  0  0  0  0  0  0  0  0  0
    0.0000    1.2375    0.0000 C   0  0  0  0  0  0  0  0  0  0  0  0
    4.2490    1.2375    0.0000 C   0  0  0  0  0  0  0  0  0  0  0  0
    3.5477    0.0000    0.0000 C   0  0  0  0  0  0  0  0  0  0  0  0
    4.2490    0.4125    0.0000 C   0  0  0  0  0  0  0  0  0  0  0  0
  1  2  2  0  0  0  0
  2  3  2  0  0  0  0
  2  4  1  0  0  0  0
  2  5  1  0  0  0  0
  6  4  1  0  0  0  0
  5  7  2  0  0  0  0
  8  5  1  0  0  0  0
  9  6  2  0  0  0  0
  7 10  1  0  0  0  0
 11  8  2  0  0  0  0
 10 12  2  0  0  0  0
 12 11  1  0  0  0  0
M  END
>  <Name>
Benzene, (2-propenylsulfonyl)-

>  <IGC50>
3.31

>  <CAS>
16212-05-8

>  <SET>
ws

>  <Species>
Tetrahymena pyriformis

>  <Test duration>
48h

$$$$

  Mrv1808 07152009203D          

 12 12  0  0  0  0            999 V2000
    4.2480    3.0398    5.8716 C   0  0  0  0  0  0  0  0  0  0  0  0
    3.2261    3.2838    4.9690 C   0  0  0  0  0  0  0  0  0  0  0  0
    5.2446    2.1031    5.5497 C   0  0  0  0  0  0  0  0  0  0  0  0
    3.1811    2.6027    3.7450 C   0  0  0  0  0  0  0  0  0  0  0  0
    5.2083    1.4206    4.3289 C   0  0  0  0  0  0  0  0  0  0  0  0
    6.2057    1.9490    6.5229 O   0  0  0  0  0  0  0  0  0  0  0  0
    4.1762    1.6746    3.4334 C   0  0  0  0  0  0  0  0  0  0  0  0
    2.0669    2.9061    2.8134 C   0  0  0  0  0  0  0  0  0  0  0  0
    7.2373    1.0230    6.2820 C   0  0  0  0  0  0  0  0  0  0  0  0
    2.0167    2.1089    1.7003 O   0  0  0  0  0  0  0  0  0  0  0  0
    1.2166    3.7681    2.9407 O   0  0  0  0  0  0  0  0  0  0  0  0
    0.9979    2.3408    0.7514 C   0  0  0  0  0  0  0  0  0  0  0  0
  2  1  2  0  0  0  0
  1  3  1  0  0  0  0
  4  2  1  0  0  0  0
  3  5  2  0  0  0  0
  3  6  1  0  0  0  0
  7  4  2  0  0  0  0
  4  8  1  0  0  0  0
  5  7  1  0  0  0  0
  6  9  1  0  0  0  0
  8 10  1  0  0  0  0
  8 11  2  0  0  0  0
 12 10  1  0  0  0  0
M  END
>  <Name>
Benzoic acid, 4-methoxy-, methyl ester

>  <IGC50>
3.31

>  <CAS>
121-98-2

>  <SET>
ws

>  <Species>
Tetrahymena pyriformis

>  <Test duration>
48h

$$$$

  Mrv1808 07152009202D          

 11 11  0  0  0  0            999 V2000
    0.4128   -1.4290    0.0000 N   0  3  0  0  0  0  0  0  0  0  0  0
    0.0000   -2.1450    0.0000 O   0  0  0  0  0  0  0  0  0  0  0  0
    0.0000   -0.7160    0.0000 O   0  5  0  0  0  0  0  0  0  0  0  0
    1.2385   -1.4290    0.0000 C   0  0  0  0  0  0  0  0  0  0  0  0
    1.6484   -0.7160    0.0000 C   0  0  0  0  0  0  0  0  0  0  0  0
    1.6484   -2.1450    0.0000 C   0  0  0  0  0  0  0  0  0  0  0  0
    1.2385    0.0000    0.0000 C   0  0  0  0  0  0  0  0  0  0  0  0
    2.4741   -0.7160    0.0000 C   0  0  0  0  0  0  0  0  0  0  0  0
    2.4741   -2.1450    0.0000 C   0  0  0  0  0  0  0  0  0  0  0  0
    1.2385   -2.8580    0.0000 C   0  0  0  0  0  0  0  0  0  0  0  0
    2.8869   -1.4290    0.0000 C   0  0  0  0  0  0  0  0  0  0  0  0
  1  2  2  0  0  0  0
  1  3  1  0  0  0  0
  1  4  1  0  0  0  0
  4  5  2  0  0  0  0
  4  6  1  0  0  0  0
  5  7  1  0  0  0  0
  5  8  1  0  0  0  0
  9  6  2  0  0  0  0
  6 10  1  0  0  0  0
  8 11  2  0  0  0  0
 11  9  1  0  0  0  0
M  CHG  2   1   1   3  -1
M  END
>  <Name>
Benzene, 1,3-dimethyl-2-nitro-

>  <IGC50>
3.3

>  <CAS>
81-20-9

>  <SET>
ws

>  <Species>
Tetrahymena pyriformis

>  <Test duration>
48h

$$$$

  Mrv1808 07152009202D          

  9  9  0  0  0  0            999 V2000
    0.8366    0.0000    0.0000 C   0  0  0  0  0  0  0  0  0  0  0  0
    1.2548    0.7111    0.0000 S   0  0  0  0  0  0  0  0  0  0  0  0
    0.0000    0.0000    0.0000 C   0  0  0  0  0  0  0  0  0  0  0  0
    2.0914    0.7111    0.0000 C   0  0  0  0  0  0  0  0  0  0  0  0
    2.5097    1.4222    0.0000 C   0  0  0  0  0  0  0  0  0  0  0  0
    2.5097    0.0000    0.0000 C   0  0  0  0  0  0  0  0  0  0  0  0
    3.3463    1.4222    0.0000 C   0  0  0  0  0  0  0  0  0  0  0  0
    3.3463    0.0000    0.0000 C   0  0  0  0  0  0  0  0  0  0  0  0
    3.7646    0.7111    0.0000 C   0  0  0  0  0  0  0  0  0  0  0  0
  1  2  1  0  0  0  0
  1  3  1  0  0  0  0
  2  4  1  0  0  0  0
  5  4  2  0  0  0  0
  4  6  1  0  0  0  0
  7  5  1  0  0  0  0
  6  8  2  0  0  0  0
  9  7  2  0  0  0  0
  8  9  1  0  0  0  0
M  END
>  <Name>
Sulfide, ethyl phenyl (8CI)

>  <IGC50>
3.3

>  <CAS>
622-38-8

>  <SET>
ws

>  <Species>
Tetrahymena pyriformis

>  <Test duration>
48h

$$$$

  Mrv1808 07152009202D          

 12 12  0  0  0  0            999 V2000
    0.0000   -1.4278    0.0000 C   0  0  0  0  0  0  0  0  0  0  0  0
    0.8251   -1.4278    0.0000 O   0  0  0  0  0  0  0  0  0  0  0  0
    1.2351   -0.7164    0.0000 C   0  0  0  0  0  0  0  0  0  0  0  0
    0.8251    0.0000    0.0000 O   0  0  0  0  0  0  0  0  0  0  0  0
    2.0602   -0.7164    0.0000 C   0  0  0  0  0  0  0  0  0  0  0  0
    2.4702    0.0000    0.0000 C   0  0  0  0  0  0  0  0  0  0  0  0
    2.4702   -1.4278    0.0000 C   0  0  0  0  0  0  0  0  0  0  0  0
    3.2952    0.0000    0.0000 C   0  0  0  0  0  0  0  0  0  0  0  0
    3.2952   -1.4278    0.0000 C   0  0  0  0  0  0  0  0  0  0  0  0
    3.7053   -0.7164    0.0000 C   0  0  0  0  0  0  0  0  0  0  0  0
    4.5303   -0.7164    0.0000 C   0  0  0  0  0  0  0  0  0  0  0  0
    4.9404    0.0000    0.0000 O   0  0  0  0  0  0  0  0  0  0  0  0
  1  2  1  0  0  0  0
  2  3  1  0  0  0  0
  3  4  2  0  0  0  0
  3  5  1  0  0  0  0
  5  6  2  0  0  0  0
  5  7  1  0  0  0  0
  6  8  1  0  0  0  0
  9  7  2  0  0  0  0
  8 10  2  0  0  0  0
 10  9  1  0  0  0  0
 10 11  1  0  0  0  0
 11 12  2  0  0  0  0
M  END
>  <Name>
Benzoic acid, 4-formyl-, methyl ester

>  <IGC50>
3.3

>  <CAS>
1571-08-0

>  <SET>
ws

>  <Species>
Tetrahymena pyriformis

>  <Test duration>
48h

$$$$

  Mrv1808 07152009202D          

  5  4  0  0  0  0            999 V2000
    0.7529    0.0000    0.0000 C   0  0  0  0  0  0  0  0  0  0  0  0
    1.4640    0.4183    0.0000 C   0  0  0  0  0  0  0  0  0  0  0  0
    0.0000    0.4183    0.0000 C   0  0  0  0  0  0  0  0  0  0  0  0
    2.1750    0.0000    0.0000 C   0  0  0  0  0  0  0  0  0  0  0  0
    2.9280    0.4183    0.0000 I   0  0  0  0  0  0  0  0  0  0  0  0
  1  2  1  0  0  0  0
  1  3  1  0  0  0  0
  2  4  1  0  0  0  0
  4  5  1  0  0  0  0
M  END
>  <Name>
1-iodobutane

>  <IGC50>
3.3

>  <CAS>
542-69-8

>  <SET>
ws

>  <Species>
Tetrahymena pyriformis

>  <Test duration>
48h

$$$$

  Mrv1808 07152009203D          

 14 13  0  0  0  0            999 V2000
    4.2980    1.7642    1.0962 C   0  0  0  0  0  0  0  0  0  0  0  0
    3.0512    1.0933    1.6241 C   0  0  0  0  0  0  0  0  0  0  0  0
    5.5597    1.2334    1.7571 C   0  0  0  0  0  0  0  0  0  0  0  0
    1.9323    1.8652    1.4551 O   0  0  0  0  0  0  0  0  0  0  0  0
    2.9353    0.0000    2.1407 O   0  0  0  0  0  0  0  0  0  0  0  0
    6.7963    1.9033    1.1787 C   0  0  0  0  0  0  0  0  0  0  0  0
    0.6851    1.3559    1.8746 C   0  0  0  0  0  0  0  0  0  0  0  0
    8.0607    1.3829    1.8427 C   0  0  0  0  0  0  0  0  0  0  0  0
    9.2995    2.0382    1.2524 C   0  0  0  0  0  0  0  0  0  0  0  0
   10.5575    1.5205    1.9295 C   0  0  0  0  0  0  0  0  0  0  0  0
   11.8144    2.1466    1.3736 C   0  0  0  0  0  0  0  0  0  0  0  0
   12.9479    1.5925    1.9090 O   0  0  0  0  0  0  0  0  0  0  0  0
   11.9297    3.0369    0.5555 O   0  0  0  0  0  0  0  0  0  0  0  0
   14.2043    2.0816    1.4930 C   0  0  0  0  0  0  0  0  0  0  0  0
  1  2  1  0  0  0  0
  1  3  1  0  0  0  0
  2  4  1  0  0  0  0
  2  5  2  0  0  0  0
  3  6  1  0  0  0  0
  4  7  1  0  0  0  0
  6  8  1  0  0  0  0
  8  9  1  0  0  0  0
  9 10  1  0  0  0  0
 10 11  1  0  0  0  0
 11 12  1  0  0  0  0
 11 13  2  0  0  0  0
 12 14  1  0  0  0  0
M  END
>  <Name>
Octanedioic acid, dimethyl ester

>  <IGC50>
3.296

>  <CAS>
1732-09-8

>  <SET>
ws

>  <Species>
Tetrahymena pyriformis

>  <Test duration>
48h

$$$$

  Mrv1808 07152009202D          

 10  9  0  0  0  0            999 V2000
    0.7110    0.7948    0.0000 C   0  0  0  0  0  0  0  0  0  0  0  0
    1.4222    1.2130    0.0000 C   0  0  0  0  0  0  0  0  0  0  0  0
    0.0000    1.2130    0.0000 Br  0  0  0  0  0  0  0  0  0  0  0  0
    2.1750    0.7948    0.0000 C   0  0  0  0  0  0  0  0  0  0  0  0
    2.8861    1.2130    0.0000 C   0  0  0  0  0  0  0  0  0  0  0  0
    3.5972    0.7948    0.0000 C   0  0  0  0  0  0  0  0  0  0  0  0
    4.3083    1.2130    0.0000 O   0  0  0  0  0  0  0  0  0  0  0  0
    5.0193    0.7948    0.0000 C   0  0  0  0  0  0  0  0  0  0  0  0
    5.7723    1.2130    0.0000 C   0  0  0  0  0  0  0  0  0  0  0  0
    5.0193    0.0000    0.0000 O   0  0  0  0  0  0  0  0  0  0  0  0
  1  2  1  0  0  0  0
  1  3  1  0  0  0  0
  2  4  1  0  0  0  0
  4  5  1  0  0  0  0
  5  6  1  0  0  0  0
  6  7  1  0  0  0  0
  7  8  1  0  0  0  0
  8  9  1  0  0  0  0
  8 10  2  0  0  0  0
M  END
>  <Name>
5-Bromopentyl acetate

>  <IGC50>
3.293

>  <CAS>
15848-22-3

>  <SET>
ws

>  <Species>
Tetrahymena pyriformis

>  <Test duration>
48h

$$$$

  Mrv1808 07152009202D          

 13 13  0  0  0  0            999 V2000
    2.0625    1.4290    0.0000 C   0  0  0  0  0  0  0  0  0  0  0  0
    2.8875    1.4290    0.0000 C   0  0  0  0  0  0  0  0  0  0  0  0
    1.6500    2.1434    0.0000 O   0  0  0  0  0  0  0  0  0  0  0  0
    1.6500    0.7144    0.0000 N   0  0  0  0  0  0  0  0  0  0  0  0
    3.3000    0.7144    0.0000 C   0  0  0  0  0  0  0  0  0  0  0  0
    0.8250    0.7144    0.0000 C   0  0  0  0  0  0  0  0  0  0  0  0
    4.1250    0.7144    0.0000 C   0  0  0  0  0  0  0  0  0  0  0  0
    0.0000    0.7144    0.0000 S   0  0  0  0  0  0  0  0  0  0  0  0
    4.5375    1.4290    0.0000 C   0  0  0  0  0  0  0  0  0  0  0  0
    4.5375    0.0000    0.0000 C   0  0  0  0  0  0  0  0  0  0  0  0
    5.3625    1.4290    0.0000 C   0  0  0  0  0  0  0  0  0  0  0  0
    5.3625    0.0000    0.0000 C   0  0  0  0  0  0  0  0  0  0  0  0
    5.7750    0.7144    0.0000 C   0  0  0  0  0  0  0  0  0  0  0  0
  1  2  1  0  0  0  0
  1  3  2  0  0  0  0
  1  4  1  0  0  0  0
  2  5  2  0  0  0  0
  4  6  2  0  0  0  0
  5  7  1  0  0  0  0
  6  8  2  0  0  0  0
  7  9  1  0  0  0  0
  7 10  2  0  0  0  0
  9 11  2  0  0  0  0
 12 10  1  0  0  0  0
 11 13  1  0  0  0  0
 13 12  2  0  0  0  0
M  END
>  <Name>
Cinnamic acid,anhydride with isothiocyanic acid (7CI,8CI)

>  <IGC50>
3.292

>  <CAS>
19495-08-0

>  <SET>
ws

>  <Species>
Tetrahymena pyriformis

>  <Test duration>
48h

$$$$

  Mrv1808 07152009202D          

  9  8  0  0  0  0            999 V2000
    4.2909   -1.2401    0.0000 C   0  0  0  0  0  0  0  0  0  0  0  0
    3.5743   -0.8239    0.0000 C   0  0  0  0  0  0  0  0  0  0  0  0
    2.8620   -1.2401    0.0000 C   0  0  0  0  0  0  0  0  0  0  0  0
    2.8620   -2.0639    0.0000 O   0  0  0  0  0  0  0  0  0  0  0  0
    2.1454   -0.8239    0.0000 O   0  0  0  0  0  0  0  0  0  0  0  0
    1.4289   -1.2401    0.0000 C   0  0  0  0  0  0  0  0  0  0  0  0
    0.7166   -0.8239    0.0000 C   0  0  0  0  0  0  0  0  0  0  0  0
    0.0000   -1.2401    0.0000 C   0  0  0  0  0  0  0  0  0  0  0  0
    0.7166    0.0000    0.0000 C   0  0  0  0  0  0  0  0  0  0  0  0
  1  2  2  0  0  0  0
  2  3  1  0  0  0  0
  3  4  2  0  0  0  0
  3  5  1  0  0  0  0
  5  6  1  0  0  0  0
  6  7  1  0  0  0  0
  7  8  1  0  0  0  0
  7  9  1  0  0  0  0
M  END
>  <Name>
2-Propenoic acid, 2-methylpropyl ester

>  <IGC50>
3.29

>  <CAS>
106-63-8

>  <SET>
ws

>  <Species>
Tetrahymena pyriformis

>  <Test duration>
48h

$$$$

  Mrv1808 07152009202D          

 10 10  0  0  0  0            999 V2000
    0.0000    0.6948    0.0000 C   0  0  0  0  0  0  0  0  0  0  0  0
    0.4342    1.4764    0.0000 C   0  0  0  0  0  0  0  0  0  0  0  0
    0.4342    0.0000    0.0000 C   0  0  0  0  0  0  0  0  0  0  0  0
    1.2592    1.4764    0.0000 C   0  0  0  0  0  0  0  0  0  0  0  0
    1.2592    0.0000    0.0000 C   0  0  0  0  0  0  0  0  0  0  0  0
    1.6935    0.6948    0.0000 C   0  0  0  0  0  0  0  0  0  0  0  0
    2.5619    0.6948    0.0000 N   0  0  0  0  0  0  0  0  0  0  0  0
    2.9961    0.0000    0.0000 C   0  0  0  0  0  0  0  0  0  0  0  0
    2.9961    1.4764    0.0000 C   0  0  0  0  0  0  0  0  0  0  0  0
    3.8646    1.4764    0.0000 C   0  0  0  0  0  0  0  0  0  0  0  0
  1  2  2  0  0  0  0
  3  1  1  0  0  0  0
  2  4  1  0  0  0  0
  5  3  2  0  0  0  0
  4  6  2  0  0  0  0
  6  5  1  0  0  0  0
  6  7  1  0  0  0  0
  7  8  1  0  0  0  0
  7  9  1  0  0  0  0
  9 10  1  0  0  0  0
M  END
>  <Name>
Aniline, N-ethyl-N-methyl- (8CI)

>  <IGC50>
3.29

>  <CAS>
613-97-8

>  <SET>
ws

>  <Species>
Tetrahymena pyriformis

>  <Test duration>
48h

$$$$

  Mrv1808 07152009202D          

  9  9  0  0  0  0            999 V2000
    1.4304   -1.6521    0.0000 C   0  0  0  0  0  0  0  0  0  0  0  0
    0.7152   -1.2409    0.0000 C   0  0  0  0  0  0  0  0  0  0  0  0
    2.1456   -1.2409    0.0000 C   0  0  0  0  0  0  0  0  0  0  0  0
    0.0000   -1.6521    0.0000 O   0  0  0  0  0  0  0  0  0  0  0  0
    0.7152   -0.4148    0.0000 C   0  0  0  0  0  0  0  0  0  0  0  0
    2.1456   -0.4148    0.0000 C   0  0  0  0  0  0  0  0  0  0  0  0
    2.8607   -1.6521    0.0000 C   0  0  0  0  0  0  0  0  0  0  0  0
    1.4304    0.0000    0.0000 C   0  0  0  0  0  0  0  0  0  0  0  0
    3.5759   -1.2409    0.0000 C   0  0  0  0  0  0  0  0  0  0  0  0
  1  2  2  0  0  0  0
  1  3  1  0  0  0  0
  2  4  1  0  0  0  0
  2  5  1  0  0  0  0
  6  3  2  0  0  0  0
  3  7  1  0  0  0  0
  5  8  2  0  0  0  0
  8  6  1  0  0  0  0
  7  9  1  0  0  0  0
M  END
>  <Name>
Phenol, m-ethyl- (8CI)

>  <IGC50>
3.29

>  <CAS>
620-17-7

>  <SET>
ws

>  <Species>
Tetrahymena pyriformis

>  <Test duration>
48h

$$$$

  Mrv1808 07152009202D          

  9  9  0  0  0  0            999 V2000
    0.7013    1.2375    0.0000 C   0  0  0  0  0  0  0  0  0  0  0  0
    1.4437    1.6500    0.0000 C   0  0  0  0  0  0  0  0  0  0  0  0
    0.7013    0.4125    0.0000 C   0  0  0  0  0  0  0  0  0  0  0  0
    0.0000    1.6500    0.0000 Cl  0  0  0  0  0  0  0  0  0  0  0  0
    2.1450    1.2375    0.0000 C   0  0  0  0  0  0  0  0  0  0  0  0
    1.4437    0.0000    0.0000 C   0  0  0  0  0  0  0  0  0  0  0  0
    2.1450    0.4125    0.0000 C   0  0  0  0  0  0  0  0  0  0  0  0
    2.8463    1.6500    0.0000 O   0  0  0  0  0  0  0  0  0  0  0  0
    3.5888    1.2375    0.0000 C   0  0  0  0  0  0  0  0  0  0  0  0
  1  2  2  0  0  0  0
  3  1  1  0  0  0  0
  1  4  1  0  0  0  0
  2  5  1  0  0  0  0
  6  3  2  0  0  0  0
  5  7  2  0  0  0  0
  5  8  1  0  0  0  0
  7  6  1  0  0  0  0
  8  9  1  0  0  0  0
M  END
>  <Name>
1-chloro-3-methoxybenzene

>  <IGC50>
3.29

>  <CAS>
2845-89-8

>  <SET>
ws

>  <Species>
Tetrahymena pyriformis

>  <Test duration>
48h

$$$$

  Mrv1808 07152009202D          

  9  9  0  0  0  0            999 V2000
    2.1037    1.2375    0.0000 C   0  0  0  0  0  0  0  0  0  0  0  0
    2.8049    1.6499    0.0000 C   0  0  0  0  0  0  0  0  0  0  0  0
    1.4024    1.6499    0.0000 C   0  0  0  0  0  0  0  0  0  0  0  0
    2.1037    0.4125    0.0000 C   0  0  0  0  0  0  0  0  0  0  0  0
    3.5473    2.0624    0.0000 N   0  0  0  0  0  0  0  0  0  0  0  0
    0.6599    1.2375    0.0000 C   0  0  0  0  0  0  0  0  0  0  0  0
    1.4024    0.0000    0.0000 C   0  0  0  0  0  0  0  0  0  0  0  0
    0.6599    0.4125    0.0000 C   0  0  0  0  0  0  0  0  0  0  0  0
    0.0000    0.0000    0.0000 Br  0  0  0  0  0  0  0  0  0  0  0  0
  1  2  1  0  0  0  0
  3  1  2  0  0  0  0
  1  4  1  0  0  0  0
  2  5  3  0  0  0  0
  6  3  1  0  0  0  0
  4  7  2  0  0  0  0
  8  6  2  0  0  0  0
  7  8  1  0  0  0  0
  8  9  1  0  0  0  0
M  END
>  <Name>
4-bromobenzonitrile

>  <IGC50>
3.29

>  <CAS>
623-00-7

>  <SET>
ws

>  <Species>
Tetrahymena pyriformis

>  <Test duration>
48h

$$$$

  Mrv1808 07152009203D          

  9  8  0  0  0  0            999 V2000
   -2.5448   -6.7573    1.4909 Cl  0  0  0  0  0  0  0  0  0  0  0  0
   -3.0102   -5.8816    0.0154 C   0  0  0  0  0  0  0  0  0  0  0  0
   -2.0036   -4.7951   -0.3517 C   0  0  0  0  0  0  0  0  0  0  0  0
   -1.7738   -3.7113    0.7082 C   0  0  0  0  0  0  0  0  0  0  0  0
   -0.7935   -2.6226    0.2644 C   0  0  0  0  0  0  0  0  0  0  0  0
   -0.5997   -1.5719    1.3642 C   0  0  0  0  0  0  0  0  0  0  0  0
    0.3483   -0.4455    0.9495 C   0  0  0  0  0  0  0  0  0  0  0  0
    0.4721    0.5877    1.9867 C   0  0  0  0  0  0  0  0  0  0  0  0
    0.5702    1.4046    2.8049 N   0  0  0  0  0  0  0  0  0  0  0  0
  1  2  1  0  0  0  0
  3  2  1  0  0  0  0
  4  3  1  0  0  0  0
  5  4  1  0  0  0  0
  5  6  1  0  0  0  0
  6  7  1  0  0  0  0
  7  8  1  0  0  0  0
  9  8  3  0  0  0  0
M  END
>  <Name>
7-Chloroheptane-1-nitrile

>  <IGC50>
3.287

>  <CAS>
22819-91-6

>  <SET>
ws

>  <Species>
Tetrahymena pyriformis

>  <Test duration>
48h

$$$$

  Mrv1808 07152009202D          

  9  8  0  0  0  0            999 V2000
    3.6392    0.4183    0.0000 C   0  0  0  0  0  0  0  0  0  0  0  0
    2.9281    0.0000    0.0000 C   0  0  0  0  0  0  0  0  0  0  0  0
    4.3922    0.0000    0.0000 C   0  0  0  0  0  0  0  0  0  0  0  0
    2.2170    0.4183    0.0000 C   0  0  0  0  0  0  0  0  0  0  0  0
    5.1033    0.4183    0.0000 C   0  0  0  0  0  0  0  0  0  0  0  0
    1.4641    0.0000    0.0000 C   0  0  0  0  0  0  0  0  0  0  0  0
    5.8144    0.0000    0.0000 C   0  0  0  0  0  0  0  0  0  0  0  0
    0.7111    0.4183    0.0000 C   0  0  0  0  0  0  0  0  0  0  0  0
    0.0000    0.8366    0.0000 N   0  0  0  0  0  0  0  0  0  0  0  0
  1  2  1  0  0  0  0
  1  3  1  0  0  0  0
  2  4  1  0  0  0  0
  3  5  1  0  0  0  0
  4  6  1  0  0  0  0
  5  7  1  0  0  0  0
  6  8  1  0  0  0  0
  8  9  3  0  0  0  0
M  END
>  <Name>
Octanenitrile

>  <IGC50>
3.283

>  <CAS>
124-12-9

>  <SET>
ws

>  <Species>
Tetrahymena pyriformis

>  <Test duration>
48h

$$$$

  Mrv1808 07152009202D          

  9  9  0  0  0  0            999 V2000
    0.0000   -1.4279    0.0000 C   0  0  0  0  0  0  0  0  0  0  0  0
    0.4125   -0.7154    0.0000 N   0  0  0  0  0  0  0  0  0  0  0  0
    1.2375   -0.7154    0.0000 C   0  0  0  0  0  0  0  0  0  0  0  0
    0.0000    0.0000    0.0000 C   0  0  0  0  0  0  0  0  0  0  0  0
    1.6471    0.0000    0.0000 C   0  0  0  0  0  0  0  0  0  0  0  0
    1.6471   -1.4279    0.0000 C   0  0  0  0  0  0  0  0  0  0  0  0
    2.4721    0.0000    0.0000 C   0  0  0  0  0  0  0  0  0  0  0  0
    2.4721   -1.4279    0.0000 C   0  0  0  0  0  0  0  0  0  0  0  0
    2.8846   -0.7154    0.0000 C   0  0  0  0  0  0  0  0  0  0  0  0
  1  2  1  0  0  0  0
  2  3  1  0  0  0  0
  2  4  1  0  0  0  0
  3  5  2  0  0  0  0
  3  6  1  0  0  0  0
  5  7  1  0  0  0  0
  8  6  2  0  0  0  0
  7  9  2  0  0  0  0
  9  8  1  0  0  0  0
M  END
>  <Name>
Benzenamine, N,N-dimethyl-

>  <IGC50>
3.28

>  <CAS>
121-69-7

>  <SET>
ws

>  <Species>
Tetrahymena pyriformis

>  <Test duration>
48h

$$$$

  Mrv1808 07152009202D          

 10 10  0  0  0  0            999 V2000
    0.8250    0.0000    0.0000 O   0  0  0  0  0  0  0  0  0  0  0  0
    1.2374   -0.7161    0.0000 C   0  0  0  0  0  0  0  0  0  0  0  0
    2.0624   -0.7161    0.0000 C   0  0  0  0  0  0  0  0  0  0  0  0
    0.8250   -1.4321    0.0000 C   0  0  0  0  0  0  0  0  0  0  0  0
    2.4749    0.0000    0.0000 C   0  0  0  0  0  0  0  0  0  0  0  0
    2.4749   -1.4321    0.0000 C   0  0  0  0  0  0  0  0  0  0  0  0
    1.2374   -2.1449    0.0000 C   0  0  0  0  0  0  0  0  0  0  0  0
    0.0000   -1.4321    0.0000 C   0  0  0  0  0  0  0  0  0  0  0  0
    3.2999   -1.4321    0.0000 C   0  0  0  0  0  0  0  0  0  0  0  0
    2.0624   -2.1449    0.0000 C   0  0  0  0  0  0  0  0  0  0  0  0
  1  2  1  0  0  0  0
  2  3  2  0  0  0  0
  2  4  1  0  0  0  0
  3  5  1  0  0  0  0
  3  6  1  0  0  0  0
  7  4  2  0  0  0  0
  4  8  1  0  0  0  0
  6  9  1  0  0  0  0
  6 10  2  0  0  0  0
 10  7  1  0  0  0  0
M  END
>  <Name>
Phenol, 2,3,6-trimethyl-

>  <IGC50>
3.28

>  <CAS>
2416-94-6

>  <SET>
ws

>  <Species>
Tetrahymena pyriformis

>  <Test duration>
48h

$$$$

  Mrv1808 07152009202D          

  9  9  0  0  0  0            999 V2000
    1.4640    2.5097    0.0000 O   0  0  0  0  0  0  0  0  0  0  0  0
    1.4640    1.6731    0.0000 C   0  0  0  0  0  0  0  0  0  0  0  0
    0.7529    1.2548    0.0000 C   0  0  0  0  0  0  0  0  0  0  0  0
    2.1750    1.2548    0.0000 C   0  0  0  0  0  0  0  0  0  0  0  0
    0.0000    1.6731    0.0000 C   0  0  0  0  0  0  0  0  0  0  0  0
    0.7529    0.4183    0.0000 C   0  0  0  0  0  0  0  0  0  0  0  0
    2.9279    1.6731    0.0000 O   0  0  0  0  0  0  0  0  0  0  0  0
    2.1750    0.4183    0.0000 C   0  0  0  0  0  0  0  0  0  0  0  0
    1.4640    0.0000    0.0000 C   0  0  0  0  0  0  0  0  0  0  0  0
  1  2  1  0  0  0  0
  3  2  2  0  0  0  0
  2  4  1  0  0  0  0
  3  5  1  0  0  0  0
  6  3  1  0  0  0  0
  4  7  1  0  0  0  0
  4  8  2  0  0  0  0
  9  6  2  0  0  0  0
  8  9  1  0  0  0  0
M  END
>  <Name>
1,2-Benzenediol, 3-methyl-

>  <IGC50>
3.28

>  <CAS>
488-17-5

>  <SET>
ws

>  <Species>
Tetrahymena pyriformis

>  <Test duration>
48h

$$$$

  Mrv1808 07152009202D          

 10 10  0  0  0  0            999 V2000
    2.4749    0.6600    0.0000 C   0  0  0  0  0  0  0  0  0  0  0  0
    1.6499    0.6600    0.0000 C   0  0  0  0  0  0  0  0  0  0  0  0
    2.8874    1.3612    0.0000 C   0  0  0  0  0  0  0  0  0  0  0  0
    1.2374    1.3612    0.0000 C   0  0  0  0  0  0  0  0  0  0  0  0
    1.2374    0.0000    0.0000 O   0  0  0  0  0  0  0  0  0  0  0  0
    2.4749    2.1037    0.0000 C   0  0  0  0  0  0  0  0  0  0  0  0
    1.6499    2.1037    0.0000 C   0  0  0  0  0  0  0  0  0  0  0  0
    0.4538    1.3612    0.0000 C   0  0  0  0  0  0  0  0  0  0  0  0
    2.8874    2.8049    0.0000 O   0  0  0  0  0  0  0  0  0  0  0  0
    0.0000    0.7012    0.0000 O   0  0  0  0  0  0  0  0  0  0  0  0
  2  1  2  0  0  0  0
  1  3  1  0  0  0  0
  4  2  1  0  0  0  0
  2  5  1  0  0  0  0
  3  6  2  0  0  0  0
  7  4  2  0  0  0  0
  4  8  1  0  0  0  0
  6  7  1  0  0  0  0
  6  9  1  0  0  0  0
  8 10  2  0  0  0  0
M  END
>  <Name>
Benzaldehyde, 2,5-dihydroxy-

>  <IGC50>
3.277

>  <CAS>
1194-98-5

>  <SET>
ws

>  <Species>
Tetrahymena pyriformis

>  <Test duration>
48h

$$$$

  Mrv1808 07152009202D          

 11 11  0  0  0  0            999 V2000
    0.0000   -2.1434    0.0000 O   0  0  0  0  0  0  0  0  0  0  0  0
    0.4125   -1.4280    0.0000 C   0  0  0  0  0  0  0  0  0  0  0  0
    0.0000   -0.7154    0.0000 O   0  0  0  0  0  0  0  0  0  0  0  0
    1.2375   -1.4280    0.0000 C   0  0  0  0  0  0  0  0  0  0  0  0
    1.6472   -0.7154    0.0000 C   0  0  0  0  0  0  0  0  0  0  0  0
    1.6472   -2.1434    0.0000 C   0  0  0  0  0  0  0  0  0  0  0  0
    2.4722   -0.7154    0.0000 C   0  0  0  0  0  0  0  0  0  0  0  0
    2.4722   -2.1434    0.0000 C   0  0  0  0  0  0  0  0  0  0  0  0
    2.8847    0.0000    0.0000 Cl  0  0  0  0  0  0  0  0  0  0  0  0
    2.8847   -1.4280    0.0000 C   0  0  0  0  0  0  0  0  0  0  0  0
    2.8847   -2.8559    0.0000 Cl  0  0  0  0  0  0  0  0  0  0  0  0
  1  2  1  0  0  0  0
  2  3  2  0  0  0  0
  2  4  1  0  0  0  0
  4  5  2  0  0  0  0
  4  6  1  0  0  0  0
  5  7  1  0  0  0  0
  8  6  2  0  0  0  0
  7  9  1  0  0  0  0
  7 10  2  0  0  0  0
 10  8  1  0  0  0  0
  8 11  1  0  0  0  0
M  END
>  <Name>
Benzoic acid, 3,5-dichloro-

>  <IGC50>
3.27

>  <CAS>
51-36-5

>  <SET>
ws

>  <Species>
Tetrahymena pyriformis

>  <Test duration>
48h

$$$$

  Mrv1808 07152009202D          

 12 12  0  0  0  0            999 V2000
    2.8463    1.2375    0.0000 C   0  0  0  0  0  0  0  0  0  0  0  0
    2.8463    2.0213    0.0000 C   0  0  0  0  0  0  0  0  0  0  0  0
    2.1037    0.8250    0.0000 C   0  0  0  0  0  0  0  0  0  0  0  0
    2.1037    2.4337    0.0000 C   0  0  0  0  0  0  0  0  0  0  0  0
    3.5475    2.4750    0.0000 C   0  0  0  0  0  0  0  0  0  0  0  0
    1.4438    1.2375    0.0000 C   0  0  0  0  0  0  0  0  0  0  0  0
    2.1037    0.0000    0.0000 O   0  0  0  0  0  0  0  0  0  0  0  0
    1.4438    2.0625    0.0000 C   0  0  0  0  0  0  0  0  0  0  0  0
    4.2488    2.0625    0.0000 O   0  0  0  0  0  0  0  0  0  0  0  0
    0.7012    0.8250    0.0000 N   0  0  0  0  0  0  0  0  0  0  0  0
    0.0000    1.2375    0.0000 O   0  0  0  0  0  0  0  0  0  0  0  0
    0.7012    0.0000    0.0000 O   0  0  0  0  0  0  0  0  0  0  0  0
  2  1  2  0  0  0  0
  1  3  1  0  0  0  0
  4  2  1  0  0  0  0
  2  5  1  0  0  0  0
  3  6  2  0  0  0  0
  3  7  1  0  0  0  0
  8  4  2  0  0  0  0
  5  9  2  0  0  0  0
  6  8  1  0  0  0  0
  6 10  1  0  0  0  0
 10 11  2  0  0  0  0
 10 12  2  0  0  0  0
M  END
>  <Name>
3-Hydroxy-4-nitrobenzaldehyde

>  <IGC50>
3.27

>  <CAS>
704-13-2

>  <SET>
ws

>  <Species>
Tetrahymena pyriformis

>  <Test duration>
48h

$$$$

  Mrv1808 07152009203D          

 13 14  0  0  0  0            999 V2000
   -3.4185   -0.4524   -1.0501 O   0  0  0  0  0  0  0  0  0  0  0  0
   -2.7285   -1.4855   -0.3583 C   0  0  0  0  0  0  0  0  0  0  0  0
   -2.0113   -0.8989    0.8582 C   0  0  0  0  0  0  0  0  0  0  0  0
   -0.9823    0.1240    0.4865 C   0  0  0  0  0  0  0  0  0  0  0  0
    0.3538   -0.2235    0.2285 C   0  0  0  0  0  0  0  0  0  0  0  0
   -1.4013    1.4523    0.4040 C   0  0  0  0  0  0  0  0  0  0  0  0
    1.2779    0.7907   -0.1183 C   0  0  0  0  0  0  0  0  0  0  0  0
    0.7930   -1.5551    0.3069 C   0  0  0  0  0  0  0  0  0  0  0  0
   -0.4925    2.4496    0.0626 C   0  0  0  0  0  0  0  0  0  0  0  0
    0.8387    2.1224   -0.1971 C   0  0  0  0  0  0  0  0  0  0  0  0
    2.6139    0.4434   -0.3765 C   0  0  0  0  0  0  0  0  0  0  0  0
    2.1242   -1.8821    0.0474 C   0  0  0  0  0  0  0  0  0  0  0  0
    3.0330   -0.8847   -0.2937 C   0  0  0  0  0  0  0  0  0  0  0  0
  1  2  1  0  0  0  0
  3  2  1  0  0  0  0
  4  3  1  0  0  0  0
  4  5  1  0  0  0  0
  4  6  2  0  0  0  0
  5  7  1  0  0  0  0
  5  8  2  0  0  0  0
  6  9  1  0  0  0  0
  7 10  1  0  0  0  0
  7 11  2  0  0  0  0
  8 12  1  0  0  0  0
 10  9  2  0  0  0  0
 11 13  1  0  0  0  0
 12 13  2  0  0  0  0
M  END
>  <Name>
2-naphthalen-1-ylethanol

>  <IGC50>
3.27

>  <CAS>
773-99-9

>  <SET>
ws

>  <Species>
Tetrahymena pyriformis

>  <Test duration>
48h

$$$$

  Mrv1808 07152009202D          

 12 13  0  0  0  0            999 V2000
    0.0000    2.4680    0.0000 C   0  0  0  0  0  0  0  0  0  0  0  0
    0.7111    2.8863    0.0000 C   0  0  0  0  0  0  0  0  0  0  0  0
    0.0000    1.6314    0.0000 C   0  0  0  0  0  0  0  0  0  0  0  0
    1.4222    2.4680    0.0000 C   0  0  0  0  0  0  0  0  0  0  0  0
    0.7111    1.2131    0.0000 N   0  0  0  0  0  0  0  0  0  0  0  0
    1.4222    1.6314    0.0000 C   0  0  0  0  0  0  0  0  0  0  0  0
    2.1333    1.2131    0.0000 C   0  0  0  0  0  0  0  0  0  0  0  0
    2.1333    0.4183    0.0000 C   0  0  0  0  0  0  0  0  0  0  0  0
    2.8445    1.6314    0.0000 C   0  0  0  0  0  0  0  0  0  0  0  0
    2.8445    0.0000    0.0000 C   0  0  0  0  0  0  0  0  0  0  0  0
    3.5556    1.2131    0.0000 C   0  0  0  0  0  0  0  0  0  0  0  0
    3.5556    0.4183    0.0000 C   0  0  0  0  0  0  0  0  0  0  0  0
  1  2  2  0  0  0  0
  3  1  1  0  0  0  0
  2  4  1  0  0  0  0
  5  3  2  0  0  0  0
  4  6  2  0  0  0  0
  6  5  1  0  0  0  0
  6  7  1  0  0  0  0
  8  7  2  0  0  0  0
  7  9  1  0  0  0  0
 10  8  1  0  0  0  0
  9 11  2  0  0  0  0
 12 10  2  0  0  0  0
 11 12  1  0  0  0  0
M  END
>  <Name>
Pyridine, 2-phenyl-

>  <IGC50>
3.27

>  <CAS>
1008-89-5

>  <SET>
ws

>  <Species>
Tetrahymena pyriformis

>  <Test duration>
48h

$$$$

  Mrv1808 07152009202D          

  9  8  0  0  0  0            999 V2000
    2.1363   -0.8225    0.0000 C   0  0  0  0  0  0  0  0  0  0  0  0
    2.8484   -1.2391    0.0000 C   0  0  0  0  0  0  0  0  0  0  0  0
    1.4242   -1.2391    0.0000 O   0  0  0  0  0  0  0  0  0  0  0  0
    2.1363    0.0000    0.0000 O   0  0  0  0  0  0  0  0  0  0  0  0
    3.5605   -0.8225    0.0000 C   0  0  0  0  0  0  0  0  0  0  0  0
    0.7121   -0.8225    0.0000 C   0  0  0  0  0  0  0  0  0  0  0  0
    0.3062   -1.5346    0.0000 C   0  0  0  0  0  0  0  0  0  0  0  0
    1.1287   -0.1104    0.0000 C   0  0  0  0  0  0  0  0  0  0  0  0
    0.0000   -0.4166    0.0000 C   0  0  0  0  0  0  0  0  0  0  0  0
  1  2  1  0  0  0  0
  1  3  1  0  0  0  0
  1  4  2  0  0  0  0
  2  5  2  0  0  0  0
  3  6  1  0  0  0  0
  6  7  1  0  0  0  0
  6  8  1  0  0  0  0
  6  9  1  0  0  0  0
M  END
>  <Name>
Acrylic acid, tert-butyl ester (8CI)

>  <IGC50>
3.27

>  <CAS>
1663-39-4

>  <SET>
ws

>  <Species>
Tetrahymena pyriformis

>  <Test duration>
48h

$$$$

  Mrv1808 07152009202D          

  6  5  0  0  0  0            999 V2000
    1.3039    0.7335    0.0000 C   0  0  0  0  0  0  0  0  0  0  0  0
    0.4482    0.7335    0.0000 C   0  0  0  0  0  0  0  0  0  0  0  0
    1.7114    0.0407    0.0000 C   0  0  0  0  0  0  0  0  0  0  0  0
    1.6707    1.4261    0.0000 O   0  0  0  0  0  0  0  0  0  0  0  0
    0.0000    1.4261    0.0000 C   0  0  0  0  0  0  0  0  0  0  0  0
    0.0407    0.0000    0.0000 Cl  0  0  0  0  0  0  0  0  0  0  0  0
  1  2  1  0  0  0  0
  1  3  1  0  0  0  0
  1  4  2  0  0  0  0
  2  5  1  0  0  0  0
  2  6  1  0  0  0  0
M  END
>  <Name>
2-Butanone, 3-chloro-

>  <IGC50>
3.269

>  <CAS>
4091-39-8

>  <SET>
ws

>  <Species>
Tetrahymena pyriformis

>  <Test duration>
48h

$$$$

  Mrv1808 07152009202D          

  9  9  0  0  0  0            999 V2000
    1.4443   -0.2498    0.0000 C   0  0  0  0  0  0  0  0  0  0  0  0
    0.5790   -0.1304    0.0000 C   0  0  0  0  0  0  0  0  0  0  0  0
    1.9191    0.2834    0.0000 O   0  0  0  0  0  0  0  0  0  0  0  0
    0.0861   -0.7920    0.0000 C   0  0  0  0  0  0  0  0  0  0  0  0
    0.2501    0.6241    0.0000 C   0  0  0  0  0  0  0  0  0  0  0  0
   -0.7264   -0.7068    0.0000 C   0  0  0  0  0  0  0  0  0  0  0  0
   -0.5626    0.7228    0.0000 C   0  0  0  0  0  0  0  0  0  0  0  0
   -1.0498    0.0552    0.0000 C   0  0  0  0  0  0  0  0  0  0  0  0
   -1.8532    0.0984    0.0000 O   0  0  0  0  0  0  0  0  0  0  0  0
  1  2  1  0  0  0  0
  1  3  2  0  0  0  0
  2  4  1  0  0  0  0
  2  5  2  0  0  0  0
  4  6  2  0  0  0  0
  7  5  1  0  0  0  0
  6  8  1  0  0  0  0
  8  7  2  0  0  0  0
  8  9  1  0  0  0  0
M  END
>  <Name>
Benzaldehyde, 4-hydroxy-

>  <IGC50>
3.266

>  <CAS>
123-08-0

>  <SET>
ws

>  <Species>
Tetrahymena pyriformis

>  <Test duration>
48h

$$$$

  Mrv1808 07152009202D          

 10 10  0  0  0  0            999 V2000
    2.4740   -1.4290    0.0000 N   0  3  0  0  0  0  0  0  0  0  0  0
    2.8869   -2.1420    0.0000 O   0  0  0  0  0  0  0  0  0  0  0  0
    2.8869   -0.7131    0.0000 O   0  5  0  0  0  0  0  0  0  0  0  0
    1.6484   -1.4290    0.0000 C   0  0  0  0  0  0  0  0  0  0  0  0
    1.2384   -2.1420    0.0000 C   0  0  0  0  0  0  0  0  0  0  0  0
    1.2384   -0.7131    0.0000 C   0  0  0  0  0  0  0  0  0  0  0  0
    0.4128   -2.1420    0.0000 C   0  0  0  0  0  0  0  0  0  0  0  0
    0.4128   -0.7131    0.0000 C   0  0  0  0  0  0  0  0  0  0  0  0
    1.6484    0.0000    0.0000 C   0  0  0  0  0  0  0  0  0  0  0  0
    0.0000   -1.4290    0.0000 C   0  0  0  0  0  0  0  0  0  0  0  0
  1  2  2  0  0  0  0
  1  3  1  0  0  0  0
  1  4  1  0  0  0  0
  4  5  2  0  0  0  0
  4  6  1  0  0  0  0
  5  7  1  0  0  0  0
  8  6  2  0  0  0  0
  6  9  1  0  0  0  0
  7 10  2  0  0  0  0
 10  8  1  0  0  0  0
M  CHG  2   1   1   3  -1
M  END
>  <Name>
Benzene, 1-methyl-2-nitro-

>  <IGC50>
3.26

>  <CAS>
88-72-2

>  <SET>
ws

>  <Species>
Tetrahymena pyriformis

>  <Test duration>
48h

$$$$

  Mrv1808 07152009202D          

  9 10  0  0  0  0            999 V2000
    1.4491    0.4140    0.0000 C   0  0  0  0  0  0  0  0  0  0  0  0
    1.4491    1.2422    0.0000 C   0  0  0  0  0  0  0  0  0  0  0  0
    2.2359    0.1656    0.0000 C   0  0  0  0  0  0  0  0  0  0  0  0
    0.7453    0.0000    0.0000 C   0  0  0  0  0  0  0  0  0  0  0  0
    2.2359    1.4906    0.0000 S   0  0  0  0  0  0  0  0  0  0  0  0
    0.7453    1.6562    0.0000 C   0  0  0  0  0  0  0  0  0  0  0  0
    2.6913    0.8281    0.0000 C   0  0  0  0  0  0  0  0  0  0  0  0
    0.0000    0.4140    0.0000 C   0  0  0  0  0  0  0  0  0  0  0  0
    0.0000    1.2422    0.0000 C   0  0  0  0  0  0  0  0  0  0  0  0
  1  2  2  0  0  0  0
  3  1  1  0  0  0  0
  1  4  1  0  0  0  0
  2  5  1  0  0  0  0
  6  2  1  0  0  0  0
  7  3  2  0  0  0  0
  4  8  2  0  0  0  0
  5  7  1  0  0  0  0
  9  6  2  0  0  0  0
  8  9  1  0  0  0  0
M  END
>  <Name>
Benzo(b)thiophene

>  <IGC50>
3.26

>  <CAS>
95-15-8

>  <SET>
ws

>  <Species>
Tetrahymena pyriformis

>  <Test duration>
48h

$$$$

  Mrv1808 07152009203D          

 11 11  0  0  0  0            999 V2000
   -2.0951    0.2785    0.0000 C   0  0  0  0  0  0  0  0  0  0  0  0
   -2.8079    1.6016    0.0011 C   0  0  0  0  0  0  0  0  0  0  0  0
   -2.7359   -0.7710   -0.0011 O   0  0  0  0  0  0  0  0  0  0  0  0
   -0.6174    0.2492    0.0000 C   0  0  0  0  0  0  0  0  0  0  0  0
    0.0747   -0.9853    0.0002 C   0  0  0  0  0  0  0  0  0  0  0  0
    0.1365    1.4327   -0.0005 C   0  0  0  0  0  0  0  0  0  0  0  0
    1.4807   -1.0270    0.0003 C   0  0  0  0  0  0  0  0  0  0  0  0
   -0.5358   -2.1918    0.0004 O   0  0  0  0  0  0  0  0  0  0  0  0
    1.5162    1.4141   -0.0005 C   0  0  0  0  0  0  0  0  0  0  0  0
    2.1865    0.1748    0.0000 C   0  0  0  0  0  0  0  0  0  0  0  0
    3.5472    0.2342    0.0001 O   0  0  0  0  0  0  0  0  0  0  0  0
  1  2  1  0  0  0  0
  1  3  2  0  0  0  0
  1  4  1  0  0  0  0
  4  5  1  0  0  0  0
  4  6  2  0  0  0  0
  5  7  2  0  0  0  0
  5  8  1  0  0  0  0
  9  6  1  0  0  0  0
  7 10  1  0  0  0  0
 10  9  2  0  0  0  0
 10 11  1  0  0  0  0
M  END
>  <Name>
Ethanone, 1-(2,4-dihydroxyphenyl)-

>  <IGC50>
3.25

>  <CAS>
89-84-9

>  <SET>
ws

>  <Species>
Tetrahymena pyriformis

>  <Test duration>
48h

$$$$

  Mrv1808 07152009202D          

 10 10  0  0  0  0            999 V2000
    0.7797    0.5061    0.0000 C   0  0  0  0  0  0  0  0  0  0  0  0
   -0.0508    0.2874    0.0000 C   0  0  0  0  0  0  0  0  0  0  0  0
    1.3127   -0.0443    0.0000 N   0  0  0  0  0  0  0  0  0  0  0  0
   -0.3150   -0.4991    0.0000 C   0  0  0  0  0  0  0  0  0  0  0  0
   -0.6117    0.8925    0.0000 C   0  0  0  0  0  0  0  0  0  0  0  0
    2.0982    0.2093    0.0000 O   0  0  0  0  0  0  0  0  0  0  0  0
    0.1696   -1.1328    0.0000 O   0  0  0  0  0  0  0  0  0  0  0  0
   -1.1261   -0.6679    0.0000 C   0  0  0  0  0  0  0  0  0  0  0  0
   -1.4073    0.7233    0.0000 C   0  0  0  0  0  0  0  0  0  0  0  0
   -1.6631   -0.0575    0.0000 C   0  0  0  0  0  0  0  0  0  0  0  0
  1  2  1  0  0  0  0
  1  3  2  0  0  0  0
  2  4  1  0  0  0  0
  2  5  2  0  0  0  0
  3  6  1  0  0  0  0
  4  7  1  0  0  0  0
  4  8  2  0  0  0  0
  9  5  1  0  0  0  0
  8 10  1  0  0  0  0
 10  9  2  0  0  0  0
M  END
>  <Name>
Benzaldehyde, 2-hydroxy-, oxime

>  <IGC50>
3.25

>  <CAS>
94-67-7

>  <SET>
ws

>  <Species>
Tetrahymena pyriformis

>  <Test duration>
48h

$$$$

  Mrv1808 07152009202D          

  9  9  0  0  0  0            999 V2000
    2.4712   -0.7140    0.0000 C   0  0  0  0  0  0  0  0  0  0  0  0
    2.0532   -1.4280    0.0000 C   0  0  0  0  0  0  0  0  0  0  0  0
    2.0532    0.0000    0.0000 C   0  0  0  0  0  0  0  0  0  0  0  0
    3.2925   -0.7140    0.0000 O   0  0  0  0  0  0  0  0  0  0  0  0
    1.2282   -1.4280    0.0000 C   0  0  0  0  0  0  0  0  0  0  0  0
    1.2282    0.0000    0.0000 C   0  0  0  0  0  0  0  0  0  0  0  0
    3.6994    0.0000    0.0000 C   0  0  0  0  0  0  0  0  0  0  0  0
    0.8250   -0.7140    0.0000 C   0  0  0  0  0  0  0  0  0  0  0  0
    0.0000   -0.7140    0.0000 C   0  0  0  0  0  0  0  0  0  0  0  0
  1  2  2  0  0  0  0
  1  3  1  0  0  0  0
  1  4  1  0  0  0  0
  2  5  1  0  0  0  0
  6  3  2  0  0  0  0
  4  7  1  0  0  0  0
  5  8  2  0  0  0  0
  8  6  1  0  0  0  0
  8  9  1  0  0  0  0
M  END
>  <Name>
Benzene, 1-methoxy-4-methyl-

>  <IGC50>
3.25

>  <CAS>
104-93-8

>  <SET>
ws

>  <Species>
Tetrahymena pyriformis

>  <Test duration>
48h

$$$$

  Mrv1808 07152009202D          

  8  8  0  0  0  0            999 V2000
    0.0000   -0.7161    0.0000 C   0  0  0  0  0  0  0  0  0  0  0  0
    0.8250   -0.7161    0.0000 C   0  0  0  0  0  0  0  0  0  0  0  0
    1.2375    0.0000    0.0000 C   0  0  0  0  0  0  0  0  0  0  0  0
    1.2375   -1.4289    0.0000 C   0  0  0  0  0  0  0  0  0  0  0  0
    2.0625    0.0000    0.0000 C   0  0  0  0  0  0  0  0  0  0  0  0
    2.0625   -1.4289    0.0000 C   0  0  0  0  0  0  0  0  0  0  0  0
    2.4750   -0.7161    0.0000 C   0  0  0  0  0  0  0  0  0  0  0  0
    3.3001   -0.7161    0.0000 C   0  0  0  0  0  0  0  0  0  0  0  0
  1  2  1  0  0  0  0
  2  3  2  0  0  0  0
  2  4  1  0  0  0  0
  3  5  1  0  0  0  0
  6  4  2  0  0  0  0
  5  7  2  0  0  0  0
  7  6  1  0  0  0  0
  7  8  1  0  0  0  0
M  END
>  <Name>
Benzene, 1,4-dimethyl-

>  <IGC50>
3.25

>  <CAS>
106-42-3

>  <SET>
ws

>  <Species>
Tetrahymena pyriformis

>  <Test duration>
48h

$$$$

  Mrv1808 07152009202D          

  7  7  0  0  0  0            999 V2000
    0.0000   -0.7160    0.0000 C   0  0  0  0  0  0  0  0  0  0  0  0
    0.8250   -0.7160    0.0000 C   0  0  0  0  0  0  0  0  0  0  0  0
    1.2437    0.0000    0.0000 C   0  0  0  0  0  0  0  0  0  0  0  0
    1.2437   -1.4320    0.0000 C   0  0  0  0  0  0  0  0  0  0  0  0
    2.0687    0.0000    0.0000 C   0  0  0  0  0  0  0  0  0  0  0  0
    2.0687   -1.4320    0.0000 C   0  0  0  0  0  0  0  0  0  0  0  0
    2.4775   -0.7160    0.0000 C   0  0  0  0  0  0  0  0  0  0  0  0
  1  2  1  0  0  0  0
  2  3  2  0  0  0  0
  2  4  1  0  0  0  0
  3  5  1  0  0  0  0
  6  4  2  0  0  0  0
  5  7  2  0  0  0  0
  7  6  1  0  0  0  0
M  END
>  <Name>
Benzene, methyl-

>  <IGC50>
3.25

>  <CAS>
108-88-3

>  <SET>
ws

>  <Species>
Tetrahymena pyriformis

>  <Test duration>
48h

$$$$

  Mrv1808 07152009202D          

  9  9  0  0  0  0            999 V2000
    2.5097    0.0000    0.0000 C   0  0  0  0  0  0  0  0  0  0  0  0
    1.6731    0.0000    0.0000 C   0  0  0  0  0  0  0  0  0  0  0  0
    2.8861    0.7111    0.0000 C   0  0  0  0  0  0  0  0  0  0  0  0
    1.2548    0.7111    0.0000 C   0  0  0  0  0  0  0  0  0  0  0  0
    2.5097    1.4221    0.0000 C   0  0  0  0  0  0  0  0  0  0  0  0
    3.7226    0.7111    0.0000 Cl  0  0  0  0  0  0  0  0  0  0  0  0
    1.6731    1.4221    0.0000 C   0  0  0  0  0  0  0  0  0  0  0  0
    0.4183    0.7111    0.0000 C   0  0  0  0  0  0  0  0  0  0  0  0
    0.0000    0.0418    0.0000 O   0  0  0  0  0  0  0  0  0  0  0  0
  2  1  2  0  0  0  0
  1  3  1  0  0  0  0
  4  2  1  0  0  0  0
  3  5  2  0  0  0  0
  3  6  1  0  0  0  0
  7  4  2  0  0  0  0
  4  8  1  0  0  0  0
  5  7  1  0  0  0  0
  8  9  1  0  0  0  0
M  END
>  <Name>
Benzenemethanol, 4-chloro- (9CI)

>  <IGC50>
3.25

>  <CAS>
873-76-7

>  <SET>
ws

>  <Species>
Tetrahymena pyriformis

>  <Test duration>
48h

$$$$

  Mrv1808 07152009202D          

  7  6  0  0  0  0            999 V2000
    0.0000   -0.8264    0.0000 C   0  0  0  0  0  0  0  0  0  0  0  0
    0.7149   -1.2382    0.0000 C   0  0  0  0  0  0  0  0  0  0  0  0
    1.4298   -0.8264    0.0000 C   0  0  0  0  0  0  0  0  0  0  0  0
    1.4298    0.0000    0.0000 O   0  0  0  0  0  0  0  0  0  0  0  0
    2.1447   -1.2382    0.0000 C   0  0  0  0  0  0  0  0  0  0  0  0
    2.8595   -0.8264    0.0000 C   0  0  0  0  0  0  0  0  0  0  0  0
    2.8595    0.0000    0.0000 C   0  0  0  0  0  0  0  0  0  0  0  0
  1  2  2  0  0  0  0
  2  3  1  0  0  0  0
  3  4  1  0  0  0  0
  3  5  1  0  0  0  0
  5  6  1  0  0  0  0
  6  7  2  0  0  0  0
M  END
>  <Name>
Hexa-1,5-dien-3-ol

>  <IGC50>
3.25

>  <CAS>
924-41-4

>  <SET>
ws

>  <Species>
Tetrahymena pyriformis

>  <Test duration>
48h

$$$$

  Mrv1808 07152009203D          

 12 13  0  0  0  0            999 V2000
    0.5927    1.3892   -0.0001 N   0  0  0  0  0  0  0  0  0  0  0  0
   -0.5638    0.7035    0.0001 C   0  0  0  0  0  0  0  0  0  0  0  0
    1.7387    0.6847    0.0000 C   0  0  0  0  0  0  0  0  0  0  0  0
   -0.5638   -0.7034    0.0000 C   0  0  0  0  0  0  0  0  0  0  0  0
   -1.7809    1.3809    0.0000 C   0  0  0  0  0  0  0  0  0  0  0  0
    1.7387   -0.6847    0.0000 C   0  0  0  0  0  0  0  0  0  0  0  0
    3.0066    1.4676    0.0001 C   0  0  0  0  0  0  0  0  0  0  0  0
    0.5928   -1.3892    0.0002 N   0  0  0  0  0  0  0  0  0  0  0  0
   -1.7808   -1.3810    0.0000 C   0  0  0  0  0  0  0  0  0  0  0  0
   -2.9933    0.6934    0.0001 C   0  0  0  0  0  0  0  0  0  0  0  0
    3.0064   -1.4676   -0.0002 C   0  0  0  0  0  0  0  0  0  0  0  0
   -2.9932   -0.6935   -0.0001 C   0  0  0  0  0  0  0  0  0  0  0  0
  1  2  1  0  0  0  0
  1  3  2  0  0  0  0
  2  4  1  0  0  0  0
  2  5  2  0  0  0  0
  3  6  1  0  0  0  0
  3  7  1  0  0  0  0
  8  4  1  0  0  0  0
  4  9  2  0  0  0  0
  5 10  1  0  0  0  0
  8  6  2  0  0  0  0
  6 11  1  0  0  0  0
  9 12  1  0  0  0  0
 10 12  2  0  0  0  0
M  END
>  <Name>
2,3-dimethylquinoxaline

>  <IGC50>
3.25

>  <CAS>
2379-55-7

>  <SET>
ws

>  <Species>
Tetrahymena pyriformis

>  <Test duration>
48h

$$$$

  Mrv1808 07152009202D          

  9  9  0  0  0  0            999 V2000
    1.4393    0.0000    0.0000 C   0  0  0  0  0  0  0  0  0  0  0  0
    0.6010   -0.0004    0.0000 C   0  0  0  0  0  0  0  0  0  0  0  0
    2.1234    0.0004    0.0000 N   0  0  0  0  0  0  0  0  0  0  0  0
    0.1907   -0.7161    0.0000 C   0  0  0  0  0  0  0  0  0  0  0  0
    0.1911    0.7156    0.0000 C   0  0  0  0  0  0  0  0  0  0  0  0
   -0.6256   -0.7187    0.0000 C   0  0  0  0  0  0  0  0  0  0  0  0
   -0.6252    0.7186    0.0000 C   0  0  0  0  0  0  0  0  0  0  0  0
   -1.0412    0.0001    0.0000 C   0  0  0  0  0  0  0  0  0  0  0  0
   -1.8633    0.0004    0.0000 N   0  0  0  0  0  0  0  0  0  0  0  0
  1  2  1  0  0  0  0
  1  3  3  0  0  0  0
  2  4  1  0  0  0  0
  2  5  2  0  0  0  0
  4  6  2  0  0  0  0
  7  5  1  0  0  0  0
  6  8  1  0  0  0  0
  8  7  2  0  0  0  0
  8  9  1  0  0  0  0
M  END
>  <Name>
Benzonitrile, p-amino- (8CI)

>  <IGC50>
3.24

>  <CAS>
873-74-5

>  <SET>
ws

>  <Species>
Tetrahymena pyriformis

>  <Test duration>
48h

$$$$

  Mrv1808 07152009202D          

 16 16  0  0  0  0            999 V2000
    4.1202   -3.5677    0.0000 C   0  0  0  0  0  0  0  0  0  0  0  0
    3.7091   -2.8567    0.0000 C   0  0  0  0  0  0  0  0  0  0  0  0
    2.8867   -2.8567    0.0000 O   0  0  0  0  0  0  0  0  0  0  0  0
    2.4713   -3.5677    0.0000 C   0  0  0  0  0  0  0  0  0  0  0  0
    2.8867   -4.2830    0.0000 O   0  0  0  0  0  0  0  0  0  0  0  0
    1.6489   -3.5677    0.0000 C   0  0  0  0  0  0  0  0  0  0  0  0
    1.2378   -4.2830    0.0000 C   0  0  0  0  0  0  0  0  0  0  0  0
    1.2378   -2.8567    0.0000 C   0  0  0  0  0  0  0  0  0  0  0  0
    0.4112   -4.2830    0.0000 C   0  0  0  0  0  0  0  0  0  0  0  0
    0.4112   -2.8567    0.0000 C   0  0  0  0  0  0  0  0  0  0  0  0
    1.6489   -2.1415    0.0000 C   0  0  0  0  0  0  0  0  0  0  0  0
    0.0000   -3.5677    0.0000 C   0  0  0  0  0  0  0  0  0  0  0  0
    2.4713   -2.1415    0.0000 O   0  0  0  0  0  0  0  0  0  0  0  0
    1.2378   -1.4262    0.0000 O   0  0  0  0  0  0  0  0  0  0  0  0
    1.6489   -0.7152    0.0000 C   0  0  0  0  0  0  0  0  0  0  0  0
    1.2378    0.0000    0.0000 C   0  0  0  0  0  0  0  0  0  0  0  0
  1  2  1  0  0  0  0
  2  3  1  0  0  0  0
  3  4  1  0  0  0  0
  4  5  2  0  0  0  0
  4  6  1  0  0  0  0
  6  7  2  0  0  0  0
  6  8  1  0  0  0  0
  7  9  1  0  0  0  0
 10  8  2  0  0  0  0
  8 11  1  0  0  0  0
  9 12  2  0  0  0  0
 12 10  1  0  0  0  0
 11 13  2  0  0  0  0
 11 14  1  0  0  0  0
 14 15  1  0  0  0  0
 15 16  1  0  0  0  0
M  END
>  <Name>
1,2-Benzenedicarboxylic acid, diethyl ester

>  <IGC50>
3.23

>  <CAS>
84-66-2

>  <SET>
ws

>  <Species>
Tetrahymena pyriformis

>  <Test duration>
48h

$$$$

  Mrv1808 07152009202D          

 10 10  0  0  0  0            999 V2000
    2.4721   -1.4279    0.0000 C   0  0  0  0  0  0  0  0  0  0  0  0
    2.8846   -2.1403    0.0000 O   0  0  0  0  0  0  0  0  0  0  0  0
    2.8846   -0.7125    0.0000 O   0  0  0  0  0  0  0  0  0  0  0  0
    1.6471   -1.4279    0.0000 C   0  0  0  0  0  0  0  0  0  0  0  0
    2.4721    0.0000    0.0000 C   0  0  0  0  0  0  0  0  0  0  0  0
    1.2375   -2.1403    0.0000 C   0  0  0  0  0  0  0  0  0  0  0  0
    1.2375   -0.7125    0.0000 C   0  0  0  0  0  0  0  0  0  0  0  0
    0.4125   -2.1403    0.0000 C   0  0  0  0  0  0  0  0  0  0  0  0
    0.4125   -0.7125    0.0000 C   0  0  0  0  0  0  0  0  0  0  0  0
    0.0000   -1.4279    0.0000 C   0  0  0  0  0  0  0  0  0  0  0  0
  1  2  2  0  0  0  0
  1  3  1  0  0  0  0
  1  4  1  0  0  0  0
  3  5  1  0  0  0  0
  4  6  2  0  0  0  0
  4  7  1  0  0  0  0
  6  8  1  0  0  0  0
  9  7  2  0  0  0  0
  8 10  2  0  0  0  0
 10  9  1  0  0  0  0
M  END
>  <Name>
Benzoic acid, methyl ester

>  <IGC50>
3.23

>  <CAS>
93-58-3

>  <SET>
ws

>  <Species>
Tetrahymena pyriformis

>  <Test duration>
48h

$$$$

  Mrv1808 07152009202D          

 11 11  0  0  0  0            999 V2000
    3.7160   -2.1442    0.0000 O   0  0  0  0  0  0  0  0  0  0  0  0
    3.3036   -1.4307    0.0000 C   0  0  0  0  0  0  0  0  0  0  0  0
    3.7160   -0.7135    0.0000 O   0  0  0  0  0  0  0  0  0  0  0  0
    2.4786   -1.4307    0.0000 C   0  0  0  0  0  0  0  0  0  0  0  0
    3.3036    0.0000    0.0000 C   0  0  0  0  0  0  0  0  0  0  0  0
    2.0662   -2.1442    0.0000 C   0  0  0  0  0  0  0  0  0  0  0  0
    2.0662   -0.7135    0.0000 C   0  0  0  0  0  0  0  0  0  0  0  0
    1.2374   -2.1442    0.0000 C   0  0  0  0  0  0  0  0  0  0  0  0
    1.2374   -0.7135    0.0000 C   0  0  0  0  0  0  0  0  0  0  0  0
    0.8249   -1.4307    0.0000 C   0  0  0  0  0  0  0  0  0  0  0  0
    0.0000   -1.4307    0.0000 C   0  0  0  0  0  0  0  0  0  0  0  0
  1  2  2  0  0  0  0
  2  3  1  0  0  0  0
  2  4  1  0  0  0  0
  3  5  1  0  0  0  0
  4  6  2  0  0  0  0
  4  7  1  0  0  0  0
  6  8  1  0  0  0  0
  9  7  2  0  0  0  0
  8 10  2  0  0  0  0
 10  9  1  0  0  0  0
 10 11  1  0  0  0  0
M  END
>  <Name>
Benzoic acid, 4-methyl-, methyl ester

>  <IGC50>
3.23

>  <CAS>
99-75-2

>  <SET>
ws

>  <Species>
Tetrahymena pyriformis

>  <Test duration>
48h

$$$$

  Mrv1808 07152009202D          

 10 10  0  0  0  0            999 V2000
    4.3500    1.2548    0.0000 O   0  0  0  0  0  0  0  0  0  0  0  0
    3.6389    1.6731    0.0000 C   0  0  0  0  0  0  0  0  0  0  0  0
    2.8861    1.2548    0.0000 C   0  0  0  0  0  0  0  0  0  0  0  0
    2.1750    1.6731    0.0000 C   0  0  0  0  0  0  0  0  0  0  0  0
    2.8861    0.4183    0.0000 C   0  0  0  0  0  0  0  0  0  0  0  0
    1.4639    1.2548    0.0000 C   0  0  0  0  0  0  0  0  0  0  0  0
    2.1750    0.0000    0.0000 C   0  0  0  0  0  0  0  0  0  0  0  0
    0.7110    1.6731    0.0000 O   0  0  0  0  0  0  0  0  0  0  0  0
    1.4639    0.4183    0.0000 C   0  0  0  0  0  0  0  0  0  0  0  0
    0.0000    1.2548    0.0000 C   0  0  0  0  0  0  0  0  0  0  0  0
  1  2  2  0  0  0  0
  2  3  1  0  0  0  0
  4  3  2  0  0  0  0
  3  5  1  0  0  0  0
  6  4  1  0  0  0  0
  5  7  2  0  0  0  0
  6  8  1  0  0  0  0
  9  6  2  0  0  0  0
  7  9  1  0  0  0  0
  8 10  1  0  0  0  0
M  END
>  <Name>
Benzaldehyde, 3-methoxy-

>  <IGC50>
3.23

>  <CAS>
591-31-1

>  <SET>
ws

>  <Species>
Tetrahymena pyriformis

>  <Test duration>
48h

$$$$

  Mrv1808 07152009202D          

 10 10  0  0  0  0            999 V2000
    0.4183    0.0000    0.0000 C   0  0  0  0  0  0  0  0  0  0  0  0
    0.0000    0.7111    0.0000 C   0  0  0  0  0  0  0  0  0  0  0  0
    1.2549    0.0000    0.0000 C   0  0  0  0  0  0  0  0  0  0  0  0
    0.4183    1.4221    0.0000 C   0  0  0  0  0  0  0  0  0  0  0  0
    1.6731    0.7111    0.0000 C   0  0  0  0  0  0  0  0  0  0  0  0
    1.2549    1.4221    0.0000 C   0  0  0  0  0  0  0  0  0  0  0  0
    2.5097    0.7111    0.0000 N   0  0  0  0  0  0  0  0  0  0  0  0
    1.6731    2.1332    0.0000 F   0  0  0  0  0  0  0  0  0  0  0  0
    2.8861    0.0000    0.0000 O   0  0  0  0  0  0  0  0  0  0  0  0
    2.8861    1.4221    0.0000 O   0  0  0  0  0  0  0  0  0  0  0  0
  1  2  2  0  0  0  0
  3  1  1  0  0  0  0
  2  4  1  0  0  0  0
  5  3  2  0  0  0  0
  4  6  2  0  0  0  0
  6  5  1  0  0  0  0
  5  7  1  0  0  0  0
  6  8  1  0  0  0  0
  7  9  2  0  0  0  0
  7 10  2  0  0  0  0
M  END
>  <Name>
Benzene, 1-fluoro-2-nitro-

>  <IGC50>
3.23

>  <CAS>
1493-27-2

>  <SET>
ws

>  <Species>
Tetrahymena pyriformis

>  <Test duration>
48h

$$$$

  Mrv1808 07152009203D          

 12 11  0  0  0  0            999 V2000
    0.6082    0.7604    1.2788 O   0  0  0  0  0  0  0  0  0  0  0  0
    1.2956    1.8237    1.8984 C   0  0  0  0  0  0  0  0  0  0  0  0
    1.0844    3.0713    1.0434 C   0  0  0  0  0  0  0  0  0  0  0  0
    1.8146    4.2833    1.6046 C   0  0  0  0  0  0  0  0  0  0  0  0
    3.2965    4.3264    1.2606 C   0  0  0  0  0  0  0  0  0  0  0  0
    4.1583    3.5016    2.2052 C   0  0  0  0  0  0  0  0  0  0  0  0
    5.6402    3.6999    1.9262 C   0  0  0  0  0  0  0  0  0  0  0  0
    6.0783    5.1234    2.2355 C   0  0  0  0  0  0  0  0  0  0  0  0
    7.5042    5.3841    1.7837 C   0  0  0  0  0  0  0  0  0  0  0  0
    7.9411    6.7948    2.1403 C   0  0  0  0  0  0  0  0  0  0  0  0
    9.3798    7.0404    1.6931 C   0  0  0  0  0  0  0  0  0  0  0  0
    9.7387    8.3410    2.0997 O   0  0  0  0  0  0  0  0  0  0  0  0
  1  2  1  0  0  0  0
  2  3  1  0  0  0  0
  3  4  1  0  0  0  0
  4  5  1  0  0  0  0
  5  6  1  0  0  0  0
  6  7  1  0  0  0  0
  7  8  1  0  0  0  0
  8  9  1  0  0  0  0
 10  9  1  0  0  0  0
 11 10  1  0  0  0  0
 12 11  1  0  0  0  0
M  END
>  <Name>
1,10-Decanediol

>  <IGC50>
3.224

>  <CAS>
112-47-0

>  <SET>
ws

>  <Species>
Tetrahymena pyriformis

>  <Test duration>
48h

$$$$

  Mrv1808 07152009202D          

 10 10  0  0  0  0            999 V2000
    2.0496    0.0000    0.0000 C   0  0  0  0  0  0  0  0  0  0  0  0
    1.2549    0.0000    0.0000 C   0  0  0  0  0  0  0  0  0  0  0  0
    2.4680    0.7111    0.0000 C   0  0  0  0  0  0  0  0  0  0  0  0
    0.8366    0.7111    0.0000 C   0  0  0  0  0  0  0  0  0  0  0  0
    2.0496    1.4222    0.0000 C   0  0  0  0  0  0  0  0  0  0  0  0
    3.3046    0.7111    0.0000 C   0  0  0  0  0  0  0  0  0  0  0  0
    1.2549    1.4222    0.0000 C   0  0  0  0  0  0  0  0  0  0  0  0
    0.0000    0.7111    0.0000 N   0  0  0  0  0  0  0  0  0  0  0  0
    3.7228    0.0419    0.0000 C   0  0  0  0  0  0  0  0  0  0  0  0
    3.7228    1.4222    0.0000 C   0  0  0  0  0  0  0  0  0  0  0  0
  2  1  2  0  0  0  0
  1  3  1  0  0  0  0
  4  2  1  0  0  0  0
  3  5  2  0  0  0  0
  3  6  1  0  0  0  0
  7  4  2  0  0  0  0
  4  8  1  0  0  0  0
  5  7  1  0  0  0  0
  6  9  1  0  0  0  0
  6 10  1  0  0  0  0
M  END
>  <Name>
Cumidine (8CI)

>  <IGC50>
3.22

>  <CAS>
99-88-7

>  <SET>
ws

>  <Species>
Tetrahymena pyriformis

>  <Test duration>
48h

$$$$

  Mrv1808 07152009202D          

  9  9  0  0  0  0            999 V2000
    0.0000    0.6601    0.0000 C   0  0  0  0  0  0  0  0  0  0  0  0
    0.4537    1.4439    0.0000 O   0  0  0  0  0  0  0  0  0  0  0  0
    1.2788    1.4439    0.0000 C   0  0  0  0  0  0  0  0  0  0  0  0
    1.6914    0.7012    0.0000 C   0  0  0  0  0  0  0  0  0  0  0  0
    1.6914    2.1451    0.0000 C   0  0  0  0  0  0  0  0  0  0  0  0
    1.2788    0.0000    0.0000 Cl  0  0  0  0  0  0  0  0  0  0  0  0
    2.5164    0.7012    0.0000 C   0  0  0  0  0  0  0  0  0  0  0  0
    2.5164    2.1451    0.0000 C   0  0  0  0  0  0  0  0  0  0  0  0
    2.9289    1.4439    0.0000 C   0  0  0  0  0  0  0  0  0  0  0  0
  1  2  1  0  0  0  0
  2  3  1  0  0  0  0
  3  4  2  0  0  0  0
  5  3  1  0  0  0  0
  4  6  1  0  0  0  0
  4  7  1  0  0  0  0
  8  5  2  0  0  0  0
  7  9  2  0  0  0  0
  9  8  1  0  0  0  0
M  END
>  <Name>
1-chloro-2-methoxybenzene

>  <IGC50>
3.22

>  <CAS>
766-51-8

>  <SET>
ws

>  <Species>
Tetrahymena pyriformis

>  <Test duration>
48h

$$$$

  Mrv1808 07152009203D          

 10 10  0  0  0  0            999 V2000
    2.7480    1.0749    0.0000 O   0  5  0  0  0  0  0  0  0  0  0  0
    2.1177   -0.0115   -0.0002 N   0  3  0  0  0  0  0  0  0  0  0  0
    2.7086   -1.1199    0.0000 O   0  0  0  0  0  0  0  0  0  0  0  0
    0.7006    0.0140   -0.0002 C   0  0  0  0  0  0  0  0  0  0  0  0
    0.0054    1.2181    0.0000 C   0  0  0  0  0  0  0  0  0  0  0  0
   -0.0356   -1.1598    0.0001 C   0  0  0  0  0  0  0  0  0  0  0  0
   -1.3852    1.2116    0.0002 C   0  0  0  0  0  0  0  0  0  0  0  0
   -1.3866   -1.2058    0.0001 N   0  0  0  0  0  0  0  0  0  0  0  0
   -2.0280   -0.0157    0.0001 C   0  0  0  0  0  0  0  0  0  0  0  0
   -3.4450   -0.0059   -0.0003 N   0  0  0  0  0  0  0  0  0  0  0  0
  1  2  1  0  0  0  0
  3  2  2  0  0  0  0
  2  4  1  0  0  0  0
  4  5  1  0  0  0  0
  4  6  2  0  0  0  0
  5  7  2  0  0  0  0
  8  6  1  0  0  0  0
  7  9  1  0  0  0  0
  8  9  2  0  0  0  0
 10  9  1  0  0  0  0
M  CHG  2   1  -1   2   1
M  END
>  <Name>
5-nitropyridin-2-amine

>  <IGC50>
3.22

>  <CAS>
4214-76-0

>  <SET>
ws

>  <Species>
Tetrahymena pyriformis

>  <Test duration>
48h

$$$$

  Mrv1808 07152009202D          

 10 10  0  0  0  0            999 V2000
    0.0000   -1.2377    0.0000 C   0  0  0  0  0  0  0  0  0  0  0  0
    0.7152   -1.6489    0.0000 C   0  0  0  0  0  0  0  0  0  0  0  0
    1.4261   -1.2377    0.0000 N   0  0  0  0  0  0  0  0  0  0  0  0
    2.1414   -1.6489    0.0000 C   0  0  0  0  0  0  0  0  0  0  0  0
    2.8566   -1.2377    0.0000 C   0  0  0  0  0  0  0  0  0  0  0  0
    2.8566   -0.4112    0.0000 C   0  0  0  0  0  0  0  0  0  0  0  0
    3.5675   -1.6489    0.0000 C   0  0  0  0  0  0  0  0  0  0  0  0
    3.5675    0.0000    0.0000 C   0  0  0  0  0  0  0  0  0  0  0  0
    4.2828   -1.2377    0.0000 C   0  0  0  0  0  0  0  0  0  0  0  0
    4.2828   -0.4112    0.0000 C   0  0  0  0  0  0  0  0  0  0  0  0
  1  2  1  0  0  0  0
  2  3  1  0  0  0  0
  3  4  1  0  0  0  0
  4  5  1  0  0  0  0
  5  6  2  0  0  0  0
  5  7  1  0  0  0  0
  6  8  1  0  0  0  0
  9  7  2  0  0  0  0
  8 10  2  0  0  0  0
 10  9  1  0  0  0  0
M  END
>  <Name>
Benzenemethanamine, N-ethyl-

>  <IGC50>
3.22

>  <CAS>
14321-27-8

>  <SET>
ws

>  <Species>
Tetrahymena pyriformis

>  <Test duration>
48h

$$$$

  Mrv1808 07152009202D          

  8  8  0  0  0  0            999 V2000
    0.0000   -1.6500    0.0000 Cl  0  0  0  0  0  0  0  0  0  0  0  0
    0.7149   -1.2382    0.0000 C   0  0  0  0  0  0  0  0  0  0  0  0
    0.7149   -0.4118    0.0000 C   0  0  0  0  0  0  0  0  0  0  0  0
    1.4298   -1.6500    0.0000 C   0  0  0  0  0  0  0  0  0  0  0  0
    1.4298    0.0000    0.0000 C   0  0  0  0  0  0  0  0  0  0  0  0
    2.1447   -1.2382    0.0000 C   0  0  0  0  0  0  0  0  0  0  0  0
    2.1447   -0.4118    0.0000 C   0  0  0  0  0  0  0  0  0  0  0  0
    2.8596   -1.6500    0.0000 N   0  0  0  0  0  0  0  0  0  0  0  0
  1  2  1  0  0  0  0
  2  3  2  0  0  0  0
  2  4  1  0  0  0  0
  3  5  1  0  0  0  0
  6  4  2  0  0  0  0
  5  7  2  0  0  0  0
  7  6  1  0  0  0  0
  6  8  1  0  0  0  0
M  END
>  <Name>
Benzenamine, 3-chloro-

>  <IGC50>
3.22

>  <CAS>
108-42-9

>  <SET>
ws

>  <Species>
Tetrahymena pyriformis

>  <Test duration>
48h

$$$$

  Mrv1808 07152009203D          

 11 10  0  0  0  0            999 V2000
   -0.8011    0.8842   -0.2566 C   0  0  0  0  0  0  0  0  0  0  0  0
    0.4650    0.2879   -0.8308 C   0  0  0  0  0  0  0  0  0  0  0  0
   -0.9901    2.0308    0.0994 O   0  0  0  0  0  0  0  0  0  0  0  0
   -1.8146   -0.0231   -0.1601 O   0  0  0  0  0  0  0  0  0  0  0  0
    1.5800    0.2944    0.2042 C   0  0  0  0  0  0  0  0  0  0  0  0
   -3.0692    0.4137    0.3615 C   0  0  0  0  0  0  0  0  0  0  0  0
    2.8647   -0.2698   -0.3813 C   0  0  0  0  0  0  0  0  0  0  0  0
   -4.0414   -0.7179    0.3542 C   0  0  0  0  0  0  0  0  0  0  0  0
    3.9847   -0.2712    0.6469 C   0  0  0  0  0  0  0  0  0  0  0  0
   -3.8292   -1.9421   -0.1118 C   0  0  0  0  0  0  0  0  0  0  0  0
    5.2651   -0.8293    0.0681 C   0  0  0  0  0  0  0  0  0  0  0  0
  1  2  1  0  0  0  0
  1  3  2  0  0  0  0
  1  4  1  0  0  0  0
  2  5  1  0  0  0  0
  4  6  1  0  0  0  0
  5  7  1  0  0  0  0
  6  8  1  0  0  0  0
  7  9  1  0  0  0  0
  8 10  2  0  0  0  0
  9 11  1  0  0  0  0
M  END
>  <Name>
Hexanoic acid, 2-propenyl ester

>  <IGC50>
3.213

>  <CAS>
123-68-2

>  <SET>
ws

>  <Species>
Tetrahymena pyriformis

>  <Test duration>
48h

$$$$

  Mrv1808 07152009202D          

  8  7  0  0  0  0            999 V2000
    5.0049    0.0000    0.0000 C   0  0  0  0  0  0  0  0  0  0  0  0
    4.2892   -0.4104    0.0000 C   0  0  0  0  0  0  0  0  0  0  0  0
    3.5735    0.0000    0.0000 C   0  0  0  0  0  0  0  0  0  0  0  0
    2.8578   -0.4104    0.0000 C   0  0  0  0  0  0  0  0  0  0  0  0
    2.1471    0.0000    0.0000 C   0  0  0  0  0  0  0  0  0  0  0  0
    1.4314   -0.4104    0.0000 C   0  0  0  0  0  0  0  0  0  0  0  0
    0.7157    0.0000    0.0000 C   0  0  0  0  0  0  0  0  0  0  0  0
    0.0000   -0.4104    0.0000 N   0  0  0  0  0  0  0  0  0  0  0  0
  1  2  1  0  0  0  0
  2  3  1  0  0  0  0
  3  4  1  0  0  0  0
  4  5  1  0  0  0  0
  5  6  1  0  0  0  0
  6  7  1  0  0  0  0
  7  8  1  0  0  0  0
M  END
>  <Name>
1-Heptanamine

>  <IGC50>
3.211

>  <CAS>
111-68-2

>  <SET>
ws

>  <Species>
Tetrahymena pyriformis

>  <Test duration>
48h

$$$$

  Mrv1808 07152009202D          

  9 10  0  0  0  0            999 V2000
    2.2129   -0.1588    0.0000 N   0  0  0  0  0  0  0  0  0  0  0  0
    2.6921   -0.8184    0.0000 C   0  0  0  0  0  0  0  0  0  0  0  0
    1.4268   -0.4092    0.0000 C   0  0  0  0  0  0  0  0  0  0  0  0
    2.2129   -1.4968    0.0000 C   0  0  0  0  0  0  0  0  0  0  0  0
    1.4268   -1.2465    0.0000 C   0  0  0  0  0  0  0  0  0  0  0  0
    0.7188    0.0000    0.0000 C   0  0  0  0  0  0  0  0  0  0  0  0
    0.7188   -1.6556    0.0000 C   0  0  0  0  0  0  0  0  0  0  0  0
    0.0000   -0.4200    0.0000 C   0  0  0  0  0  0  0  0  0  0  0  0
    0.0000   -1.2357    0.0000 C   0  0  0  0  0  0  0  0  0  0  0  0
  1  2  1  0  0  0  0
  1  3  1  0  0  0  0
  2  4  2  0  0  0  0
  3  5  2  0  0  0  0
  3  6  1  0  0  0  0
  5  4  1  0  0  0  0
  5  7  1  0  0  0  0
  6  8  2  0  0  0  0
  7  9  2  0  0  0  0
  9  8  1  0  0  0  0
M  END
>  <Name>
1H-Indole

>  <IGC50>
3.21

>  <CAS>
120-72-9

>  <SET>
ws

>  <Species>
Tetrahymena pyriformis

>  <Test duration>
48h

$$$$

  Mrv1808 07152009202D          

  6  5  0  0  0  0            999 V2000
    1.4437    1.2374    0.0000 C   0  0  0  0  0  0  0  0  0  0  0  0
    0.7425    0.8250    0.0000 C   0  0  0  0  0  0  0  0  0  0  0  0
    2.1449    0.8250    0.0000 C   0  0  0  0  0  0  0  0  0  0  0  0
    0.7425    0.0000    0.0000 Br  0  0  0  0  0  0  0  0  0  0  0  0
    0.0000    1.2374    0.0000 C   0  0  0  0  0  0  0  0  0  0  0  0
    2.8873    1.2374    0.0000 C   0  0  0  0  0  0  0  0  0  0  0  0
  1  2  1  0  0  0  0
  1  3  1  0  0  0  0
  2  4  1  0  0  0  0
  2  5  1  0  0  0  0
  3  6  1  0  0  0  0
M  END
>  <Name>
2-bromopentane

>  <IGC50>
3.21

>  <CAS>
107-81-3

>  <SET>
ws

>  <Species>
Tetrahymena pyriformis

>  <Test duration>
48h

$$$$

  Mrv1808 07152009202D          

 11 11  0  0  0  0            999 V2000
    0.0000    1.1712    0.0000 C   0  0  0  0  0  0  0  0  0  0  0  0
    0.7529    1.5895    0.0000 C   0  0  0  0  0  0  0  0  0  0  0  0
    1.4640    1.1712    0.0000 C   0  0  0  0  0  0  0  0  0  0  0  0
    2.2169    1.5895    0.0000 C   0  0  0  0  0  0  0  0  0  0  0  0
    2.2169    2.4679    0.0000 O   0  0  0  0  0  0  0  0  0  0  0  0
    2.9280    1.1712    0.0000 C   0  0  0  0  0  0  0  0  0  0  0  0
    3.6391    1.5895    0.0000 C   0  0  0  0  0  0  0  0  0  0  0  0
    2.9280    0.4183    0.0000 C   0  0  0  0  0  0  0  0  0  0  0  0
    4.3502    1.1712    0.0000 C   0  0  0  0  0  0  0  0  0  0  0  0
    3.6391    0.0000    0.0000 C   0  0  0  0  0  0  0  0  0  0  0  0
    4.3502    0.4183    0.0000 C   0  0  0  0  0  0  0  0  0  0  0  0
  1  2  1  0  0  0  0
  2  3  1  0  0  0  0
  3  4  1  0  0  0  0
  4  5  2  0  0  0  0
  4  6  1  0  0  0  0
  6  7  2  0  0  0  0
  8  6  1  0  0  0  0
  7  9  1  0  0  0  0
 10  8  2  0  0  0  0
  9 11  2  0  0  0  0
 11 10  1  0  0  0  0
M  END
>  <Name>
1-Butanone, 1-phenyl-

>  <IGC50>
3.21

>  <CAS>
495-40-9

>  <SET>
ws

>  <Species>
Tetrahymena pyriformis

>  <Test duration>
48h

$$$$

  Mrv1808 07152009203D          

 10  9  0  0  0  0            999 V2000
    0.8064    2.4310    2.1596 C   0  0  0  0  0  0  0  0  0  0  0  0
    1.3745    1.0374    2.0004 C   0  0  0  0  0  0  0  0  0  0  0  0
    2.6401    1.0403    1.1555 C   0  0  0  0  0  0  0  0  0  0  0  0
    3.7620    1.8024    1.8443 C   0  0  0  0  0  0  0  0  0  0  0  0
    4.9689    1.9594    0.9330 C   0  0  0  0  0  0  0  0  0  0  0  0
    6.0397    2.7480    1.5968 C   0  0  0  0  0  0  0  0  0  0  0  0
    7.3186    2.3592    1.6080 C   0  0  0  0  0  0  0  0  0  0  0  0
    8.3610    3.1736    2.2568 C   0  0  0  0  0  0  0  0  0  0  0  0
    9.6052    2.6370    2.2242 O   0  0  0  0  0  0  0  0  0  0  0  0
    8.2690    4.2548    2.8160 O   0  0  0  0  0  0  0  0  0  0  0  0
  1  2  1  0  0  0  0
  2  3  1  0  0  0  0
  3  4  1  0  0  0  0
  4  5  1  0  0  0  0
  5  6  1  0  0  0  0
  6  7  2  0  0  0  0
  8  7  1  0  0  0  0
  9  8  1  0  0  0  0
  8 10  2  0  0  0  0
M  END
>  <Name>
Oct-2-enoic acid (E)

>  <IGC50>
3.209

>  <CAS>
1871-67-6

>  <SET>
ws

>  <Species>
Tetrahymena pyriformis

>  <Test duration>
48h

$$$$

  Mrv1808 07152009202D          

 12 12  0  0  0  0            999 V2000
    2.8444    0.4183    0.0000 C   0  0  0  0  0  0  0  0  0  0  0  0
    2.8444    1.2549    0.0000 C   0  0  0  0  0  0  0  0  0  0  0  0
    2.1332    0.0000    0.0000 C   0  0  0  0  0  0  0  0  0  0  0  0
    2.1332    1.6314    0.0000 C   0  0  0  0  0  0  0  0  0  0  0  0
    3.5555    1.6731    0.0000 C   0  0  0  0  0  0  0  0  0  0  0  0
    1.4222    0.4183    0.0000 C   0  0  0  0  0  0  0  0  0  0  0  0
    1.4222    1.2549    0.0000 C   0  0  0  0  0  0  0  0  0  0  0  0
    2.1332    2.4679    0.0000 Cl  0  0  0  0  0  0  0  0  0  0  0  0
    3.5555    2.5097    0.0000 O   0  0  0  0  0  0  0  0  0  0  0  0
    0.7111    0.0000    0.0000 O   0  0  0  0  0  0  0  0  0  0  0  0
    0.7111    1.6314    0.0000 O   0  0  0  0  0  0  0  0  0  0  0  0
    0.0000    0.4601    0.0000 C   0  0  0  0  0  0  0  0  0  0  0  0
  2  1  2  0  0  0  0
  1  3  1  0  0  0  0
  4  2  1  0  0  0  0
  2  5  1  0  0  0  0
  3  6  2  0  0  0  0
  7  4  2  0  0  0  0
  4  8  1  0  0  0  0
  5  9  2  0  0  0  0
  6  7  1  0  0  0  0
  6 10  1  0  0  0  0
  7 11  1  0  0  0  0
 10 12  1  0  0  0  0
M  END
>  <Name>
2-Chloro-3-hydroxy-p-anisaldehyde

>  <IGC50>
3.204

>  <CAS>
37687-57-3

>  <SET>
ws

>  <Species>
Tetrahymena pyriformis

>  <Test duration>
48h

$$$$

  Mrv1808 07152009202D          

 10 10  0  0  0  0            999 V2000
    1.4025    1.2375    0.0000 C   0  0  0  0  0  0  0  0  0  0  0  0
    2.1038    1.6500    0.0000 C   0  0  0  0  0  0  0  0  0  0  0  0
    1.4025    0.4125    0.0000 C   0  0  0  0  0  0  0  0  0  0  0  0
    0.7013    1.6500    0.0000 N   0  0  0  0  0  0  0  0  0  0  0  0
    2.8463    1.2375    0.0000 C   0  0  0  0  0  0  0  0  0  0  0  0
    2.1038    0.0000    0.0000 C   0  0  0  0  0  0  0  0  0  0  0  0
    0.7013    2.4750    0.0000 O   0  0  0  0  0  0  0  0  0  0  0  0
    0.0000    1.2375    0.0000 O   0  0  0  0  0  0  0  0  0  0  0  0
    2.8463    0.4125    0.0000 C   0  0  0  0  0  0  0  0  0  0  0  0
    3.5475    1.6500    0.0000 F   0  0  0  0  0  0  0  0  0  0  0  0
  1  2  2  0  0  0  0
  3  1  1  0  0  0  0
  1  4  1  0  0  0  0
  2  5  1  0  0  0  0
  6  3  2  0  0  0  0
  4  7  2  0  0  0  0
  4  8  2  0  0  0  0
  5  9  2  0  0  0  0
  5 10  1  0  0  0  0
  9  6  1  0  0  0  0
M  END
>  <Name>
Benzene, 1-fluoro-3-nitro- (8CI)(9CI)

>  <IGC50>
3.2

>  <CAS>
402-67-5

>  <SET>
ws

>  <Species>
Tetrahymena pyriformis

>  <Test duration>
48h

$$$$

  Mrv1808 07152009202D          

 10 10  0  0  0  0            999 V2000
    0.4183    1.4222    0.0000 C   0  0  0  0  0  0  0  0  0  0  0  0
    0.0000    0.7111    0.0000 N   0  0  0  0  0  0  0  0  0  0  0  0
    1.2130    1.4222    0.0000 C   0  0  0  0  0  0  0  0  0  0  0  0
    0.4183    0.0000    0.0000 C   0  0  0  0  0  0  0  0  0  0  0  0
    1.6313    0.7111    0.0000 C   0  0  0  0  0  0  0  0  0  0  0  0
    1.2130    0.0000    0.0000 C   0  0  0  0  0  0  0  0  0  0  0  0
    2.4679    0.7111    0.0000 C   0  0  0  0  0  0  0  0  0  0  0  0
    2.8862    0.0000    0.0000 C   0  0  0  0  0  0  0  0  0  0  0  0
    2.8862    1.4640    0.0000 C   0  0  0  0  0  0  0  0  0  0  0  0
    3.3044    0.7111    0.0000 C   0  0  0  0  0  0  0  0  0  0  0  0
  1  2  2  0  0  0  0
  3  1  1  0  0  0  0
  2  4  1  0  0  0  0
  5  3  2  0  0  0  0
  4  6  2  0  0  0  0
  5  7  1  0  0  0  0
  6  5  1  0  0  0  0
  7  8  1  0  0  0  0
  7  9  1  0  0  0  0
  7 10  1  0  0  0  0
M  END
>  <Name>
4-tert-butylpyridine

>  <IGC50>
3.2

>  <CAS>
3978-81-2

>  <SET>
ws

>  <Species>
Tetrahymena pyriformis

>  <Test duration>
48h

$$$$

  Mrv1808 07152009202D          

  9  9  0  0  0  0            999 V2000
    2.1750    0.4183    0.0000 C   0  0  0  0  0  0  0  0  0  0  0  0
    2.1750    1.2548    0.0000 C   0  0  0  0  0  0  0  0  0  0  0  0
    1.4639    0.0419    0.0000 C   0  0  0  0  0  0  0  0  0  0  0  0
    1.4639    1.6731    0.0000 C   0  0  0  0  0  0  0  0  0  0  0  0
    2.9278    1.6731    0.0000 Cl  0  0  0  0  0  0  0  0  0  0  0  0
    0.7529    0.4183    0.0000 C   0  0  0  0  0  0  0  0  0  0  0  0
    0.7529    1.2548    0.0000 C   0  0  0  0  0  0  0  0  0  0  0  0
    1.4639    2.5096    0.0000 N   0  0  0  0  0  0  0  0  0  0  0  0
    0.0000    0.0000    0.0000 C   0  0  0  0  0  0  0  0  0  0  0  0
  2  1  2  0  0  0  0
  1  3  1  0  0  0  0
  4  2  1  0  0  0  0
  2  5  1  0  0  0  0
  3  6  2  0  0  0  0
  7  4  2  0  0  0  0
  4  8  1  0  0  0  0
  6  7  1  0  0  0  0
  6  9  1  0  0  0  0
M  END
>  <Name>
2-Chloro-5-methylaniline

>  <IGC50>
3.2

>  <CAS>
95-81-8

>  <SET>
ws

>  <Species>
Tetrahymena pyriformis

>  <Test duration>
48h

$$$$

  Mrv1808 07152009203D          

  9  8  0  0  0  0            999 V2000
    5.9663    1.9660    1.7449 C   0  0  0  0  0  0  0  0  0  0  0  0
    5.1564    3.1562    2.2460 C   0  0  0  0  0  0  0  0  0  0  0  0
    7.4385    2.1292    2.0856 C   0  0  0  0  0  0  0  0  0  0  0  0
    3.7553    3.0034    1.9553 C   0  0  0  0  0  0  0  0  0  0  0  0
    8.2540    0.9410    1.6021 C   0  0  0  0  0  0  0  0  0  0  0  0
    2.5931    2.8801    1.7209 C   0  0  0  0  0  0  0  0  0  0  0  0
    9.7092    1.0732    1.9911 C   0  0  0  0  0  0  0  0  0  0  0  0
    1.1823    2.7328    1.4373 C   0  0  0  0  0  0  0  0  0  0  0  0
    0.9371    3.2015    0.1278 O   0  0  0  0  0  0  0  0  0  0  0  0
  1  2  1  0  0  0  0
  1  3  1  0  0  0  0
  2  4  1  0  0  0  0
  3  5  1  0  0  0  0
  4  6  3  0  0  0  0
  5  7  1  0  0  0  0
  6  8  1  0  0  0  0
  8  9  1  0  0  0  0
M  END
>  <Name>
2-Octyn-1-ol

>  <IGC50>
3.194

>  <CAS>
20739-58-6

>  <SET>
ws

>  <Species>
Tetrahymena pyriformis

>  <Test duration>
48h

$$$$

  Mrv1808 07152009203D          

  9  9  0  0  0  0            999 V2000
    0.0510   -0.0099    0.4074 C   0  0  0  0  0  0  0  0  0  0  0  0
   -0.6506   -1.1992    0.2006 C   0  0  0  0  0  0  0  0  0  0  0  0
   -0.5951    1.2118    0.2170 C   0  0  0  0  0  0  0  0  0  0  0  0
    1.4850   -0.0487    0.8318 C   0  0  0  0  0  0  0  0  0  0  0  0
   -1.9837   -1.1649   -0.1907 C   0  0  0  0  0  0  0  0  0  0  0  0
   -1.9291    1.2421   -0.1748 C   0  0  0  0  0  0  0  0  0  0  0  0
    2.3745   -0.3861   -0.3158 C   0  0  0  0  0  0  0  0  0  0  0  0
   -2.6246    0.0554   -0.3786 C   0  0  0  0  0  0  0  0  0  0  0  0
    3.4875    0.2834   -0.5903 C   0  0  0  0  0  0  0  0  0  0  0  0
  1  2  1  0  0  0  0
  1  3  2  0  0  0  0
  1  4  1  0  0  0  0
  2  5  2  0  0  0  0
  6  3  1  0  0  0  0
  4  7  1  0  0  0  0
  5  8  1  0  0  0  0
  8  6  2  0  0  0  0
  7  9  2  0  0  0  0
M  END
>  <Name>
Benzene, 2-propenyl-

>  <IGC50>
3.19

>  <CAS>
300-57-2

>  <SET>
ws

>  <Species>
Tetrahymena pyriformis

>  <Test duration>
48h

$$$$

  Mrv1808 07152009202D          

 11 11  0  0  0  0            999 V2000
    2.5494    0.7648    0.0000 C   0  0  0  0  0  0  0  0  0  0  0  0
    1.7421    0.7648    0.0000 C   0  0  0  0  0  0  0  0  0  0  0  0
    2.9744    1.4447    0.0000 C   0  0  0  0  0  0  0  0  0  0  0  0
    1.3172    1.4447    0.0000 C   0  0  0  0  0  0  0  0  0  0  0  0
    1.3172    0.0000    0.0000 C   0  0  0  0  0  0  0  0  0  0  0  0
    2.5494    2.1670    0.0000 C   0  0  0  0  0  0  0  0  0  0  0  0
    3.8241    1.4447    0.0000 O   0  0  0  0  0  0  0  0  0  0  0  0
    1.7421    2.1670    0.0000 C   0  0  0  0  0  0  0  0  0  0  0  0
    0.4674    1.4447    0.0000 C   0  0  0  0  0  0  0  0  0  0  0  0
    0.0000    0.7648    0.0000 C   0  0  0  0  0  0  0  0  0  0  0  0
    0.0000    2.1245    0.0000 O   0  0  0  0  0  0  0  0  0  0  0  0
  2  1  2  0  0  0  0
  1  3  1  0  0  0  0
  4  2  1  0  0  0  0
  2  5  1  0  0  0  0
  3  6  2  0  0  0  0
  3  7  1  0  0  0  0
  8  4  2  0  0  0  0
  4  9  1  0  0  0  0
  6  8  1  0  0  0  0
  9 10  1  0  0  0  0
  9 11  2  0  0  0  0
M  END
>  <Name>
1-(4-hydroxy-2-methylphenyl)ethanone

>  <IGC50>
3.19

>  <CAS>
875-59-2

>  <SET>
ws

>  <Species>
Tetrahymena pyriformis

>  <Test duration>
48h

$$$$

  Mrv1808 07152009202D          

  8  8  0  0  0  0            999 V2000
    0.8148    0.0000    0.0000 F   0  0  0  0  0  0  0  0  0  0  0  0
    1.2223    0.6926    0.0000 C   0  0  0  0  0  0  0  0  0  0  0  0
    0.7741    1.4260    0.0000 C   0  0  0  0  0  0  0  0  0  0  0  0
    1.9964    0.6926    0.0000 C   0  0  0  0  0  0  0  0  0  0  0  0
    0.0000    1.4260    0.0000 O   0  0  0  0  0  0  0  0  0  0  0  0
    1.1816    2.1186    0.0000 C   0  0  0  0  0  0  0  0  0  0  0  0
    2.4446    1.3853    0.0000 C   0  0  0  0  0  0  0  0  0  0  0  0
    2.0372    2.1186    0.0000 C   0  0  0  0  0  0  0  0  0  0  0  0
  1  2  1  0  0  0  0
  3  2  2  0  0  0  0
  2  4  1  0  0  0  0
  3  5  1  0  0  0  0
  6  3  1  0  0  0  0
  4  7  2  0  0  0  0
  8  6  2  0  0  0  0
  7  8  1  0  0  0  0
M  END
>  <Name>
Phenol, 2-fluoro-

>  <IGC50>
3.19

>  <CAS>
367-12-4

>  <SET>
ws

>  <Species>
Tetrahymena pyriformis

>  <Test duration>
48h

$$$$

  Mrv1808 07152009202D          

  8  8  0  0  0  0            999 V2000
    0.0000    1.1712    0.0000 C   0  0  0  0  0  0  0  0  0  0  0  0
    0.7529    1.5895    0.0000 S   0  0  0  0  0  0  0  0  0  0  0  0
    1.4640    1.1712    0.0000 C   0  0  0  0  0  0  0  0  0  0  0  0
    2.1751    1.5895    0.0000 C   0  0  0  0  0  0  0  0  0  0  0  0
    1.4640    0.4183    0.0000 C   0  0  0  0  0  0  0  0  0  0  0  0
    2.8862    1.1712    0.0000 C   0  0  0  0  0  0  0  0  0  0  0  0
    2.1751    0.0000    0.0000 C   0  0  0  0  0  0  0  0  0  0  0  0
    2.8862    0.4183    0.0000 C   0  0  0  0  0  0  0  0  0  0  0  0
  1  2  1  0  0  0  0
  2  3  1  0  0  0  0
  3  4  2  0  0  0  0
  5  3  1  0  0  0  0
  4  6  1  0  0  0  0
  7  5  2  0  0  0  0
  6  8  2  0  0  0  0
  8  7  1  0  0  0  0
M  END
>  <Name>
Sulfide, methyl phenyl (6CI,8CI)

>  <IGC50>
3.18

>  <CAS>
100-68-5

>  <SET>
ws

>  <Species>
Tetrahymena pyriformis

>  <Test duration>
48h

$$$$

  Mrv1808 07152009202D          

  9  9  0  0  0  0            999 V2000
    2.8594    0.0000    0.0000 N   0  0  0  0  0  0  0  0  0  0  0  0
    2.1445   -0.4118    0.0000 C   0  0  0  0  0  0  0  0  0  0  0  0
    2.1445   -1.2381    0.0000 C   0  0  0  0  0  0  0  0  0  0  0  0
    1.4297    0.0000    0.0000 C   0  0  0  0  0  0  0  0  0  0  0  0
    2.8594   -1.6499    0.0000 Cl  0  0  0  0  0  0  0  0  0  0  0  0
    1.4297   -1.6499    0.0000 C   0  0  0  0  0  0  0  0  0  0  0  0
    0.7148   -0.4118    0.0000 C   0  0  0  0  0  0  0  0  0  0  0  0
    0.7148   -1.2381    0.0000 C   0  0  0  0  0  0  0  0  0  0  0  0
    0.0000   -1.6499    0.0000 C   0  0  0  0  0  0  0  0  0  0  0  0
  1  2  1  0  0  0  0
  2  3  2  0  0  0  0
  2  4  1  0  0  0  0
  3  5  1  0  0  0  0
  3  6  1  0  0  0  0
  7  4  2  0  0  0  0
  6  8  2  0  0  0  0
  8  7  1  0  0  0  0
  8  9  1  0  0  0  0
M  END
>  <Name>
Benzenamine, 2-chloro-4-methyl-

>  <IGC50>
3.18

>  <CAS>
615-65-6

>  <SET>
ws

>  <Species>
Tetrahymena pyriformis

>  <Test duration>
48h

$$$$

  Mrv1808 07152009203D          

 11 11  0  0  0  0            999 V2000
   -0.5225    2.2443   -0.2306 O   0  0  0  0  0  0  0  0  0  0  0  0
   -0.9537    0.9572   -0.1095 C   0  0  0  0  0  0  0  0  0  0  0  0
   -0.0478   -0.0875    0.0727 C   0  0  0  0  0  0  0  0  0  0  0  0
   -2.3218    0.6916   -0.1691 C   0  0  0  0  0  0  0  0  0  0  0  0
   -0.5098   -1.3980    0.1952 C   0  0  0  0  0  0  0  0  0  0  0  0
    1.3845    0.1675    0.1379 C   0  0  0  0  0  0  0  0  0  0  0  0
   -2.7839   -0.6188   -0.0465 C   0  0  0  0  0  0  0  0  0  0  0  0
   -1.8779   -1.6636    0.1356 C   0  0  0  0  0  0  0  0  0  0  0  0
    1.8110    1.2419    0.5968 O   0  0  0  0  0  0  0  0  0  0  0  0
    2.2255   -0.8503   -0.3164 N   0  0  0  0  0  0  0  0  0  0  0  0
    3.5962   -0.6843   -0.2661 N   0  0  0  0  0  0  0  0  0  0  0  0
  1  2  1  0  0  0  0
  3  2  1  0  0  0  0
  2  4  2  0  0  0  0
  3  5  2  0  0  0  0
  3  6  1  0  0  0  0
  4  7  1  0  0  0  0
  5  8  1  0  0  0  0
  9  6  2  0  0  0  0
 10  6  1  0  0  0  0
  8  7  2  0  0  0  0
 10 11  1  0  0  0  0
M  END
>  <Name>
2-hydroxybenzohydrazide

>  <IGC50>
3.18

>  <CAS>
936-02-7

>  <SET>
ws

>  <Species>
Tetrahymena pyriformis

>  <Test duration>
48h

$$$$

  Mrv1808 07152009202D          

  8  8  0  0  0  0            999 V2000
    2.4775   -1.4295    0.0000 O   0  0  0  0  0  0  0  0  0  0  0  0
    1.6525   -1.4295    0.0000 C   0  0  0  0  0  0  0  0  0  0  0  0
    1.2388   -2.1455    0.0000 C   0  0  0  0  0  0  0  0  0  0  0  0
    1.2388   -0.7160    0.0000 C   0  0  0  0  0  0  0  0  0  0  0  0
    0.4138   -2.1455    0.0000 C   0  0  0  0  0  0  0  0  0  0  0  0
    0.4138   -0.7160    0.0000 C   0  0  0  0  0  0  0  0  0  0  0  0
    1.6525    0.0000    0.0000 Cl  0  0  0  0  0  0  0  0  0  0  0  0
    0.0000   -1.4295    0.0000 C   0  0  0  0  0  0  0  0  0  0  0  0
  1  2  1  0  0  0  0
  2  3  2  0  0  0  0
  2  4  1  0  0  0  0
  3  5  1  0  0  0  0
  6  4  2  0  0  0  0
  4  7  1  0  0  0  0
  5  8  2  0  0  0  0
  8  6  1  0  0  0  0
M  END
>  <Name>
Phenol, 2-chloro-

>  <IGC50>
3.18

>  <CAS>
95-57-8

>  <SET>
ws

>  <Species>
Tetrahymena pyriformis

>  <Test duration>
48h

$$$$

  Mrv1808 07152009202D          

 11 11  0  0  0  0            999 V2000
    0.0000   -1.4285    0.0000 C   0  0  0  0  0  0  0  0  0  0  0  0
    0.4129   -0.7143    0.0000 C   0  0  0  0  0  0  0  0  0  0  0  0
    1.2386   -0.7143    0.0000 C   0  0  0  0  0  0  0  0  0  0  0  0
    0.0000    0.0000    0.0000 C   0  0  0  0  0  0  0  0  0  0  0  0
    1.6514    0.0000    0.0000 C   0  0  0  0  0  0  0  0  0  0  0  0
    1.6514   -1.4285    0.0000 C   0  0  0  0  0  0  0  0  0  0  0  0
    2.4772    0.0000    0.0000 C   0  0  0  0  0  0  0  0  0  0  0  0
    2.4772   -1.4285    0.0000 C   0  0  0  0  0  0  0  0  0  0  0  0
    2.8900   -0.7143    0.0000 C   0  0  0  0  0  0  0  0  0  0  0  0
    3.7158   -0.7143    0.0000 C   0  0  0  0  0  0  0  0  0  0  0  0
    4.1287    0.0000    0.0000 O   0  0  0  0  0  0  0  0  0  0  0  0
  1  2  1  0  0  0  0
  2  3  1  0  0  0  0
  2  4  1  0  0  0  0
  3  5  2  0  0  0  0
  3  6  1  0  0  0  0
  5  7  1  0  0  0  0
  8  6  2  0  0  0  0
  7  9  2  0  0  0  0
  9  8  1  0  0  0  0
  9 10  1  0  0  0  0
 10 11  1  0  0  0  0
M  END
>  <Name>
Benzenemethanol, 4-(1-methylethyl)-

>  <IGC50>
3.18

>  <CAS>
536-60-7

>  <SET>
ws

>  <Species>
Tetrahymena pyriformis

>  <Test duration>
48h

$$$$

  Mrv1808 07152009203D          

 10 10  0  0  0  0            999 V2000
    3.9347    0.0275    0.0015 Br  0  0  0  0  0  0  0  0  0  0  0  0
    2.0450    0.0025    0.0000 C   0  0  0  0  0  0  0  0  0  0  0  0
    1.3638   -1.2148   -0.0003 C   0  0  0  0  0  0  0  0  0  0  0  0
    1.3314    1.2011   -0.0003 C   0  0  0  0  0  0  0  0  0  0  0  0
   -0.0309   -1.2337   -0.0009 C   0  0  0  0  0  0  0  0  0  0  0  0
   -0.0634    1.1822   -0.0008 C   0  0  0  0  0  0  0  0  0  0  0  0
   -0.7445   -0.0352   -0.0012 C   0  0  0  0  0  0  0  0  0  0  0  0
   -2.1988   -0.0547    0.0000 C   0  0  0  0  0  0  0  0  0  0  0  0
   -2.7360    1.1960    0.0009 O   0  0  0  0  0  0  0  0  0  0  0  0
   -2.9012   -1.0709    0.0012 O   0  0  0  0  0  0  0  0  0  0  0  0
  1  2  1  0  0  0  0
  3  2  2  0  0  0  0
  4  2  1  0  0  0  0
  5  3  1  0  0  0  0
  6  4  2  0  0  0  0
  7  5  2  0  0  0  0
  7  6  1  0  0  0  0
  7  8  1  0  0  0  0
  9  8  1  0  0  0  0
 10  8  2  0  0  0  0
M  END
>  <Name>
4-bromobenzoic acid

>  <IGC50>
3.18

>  <CAS>
586-76-5

>  <SET>
ws

>  <Species>
Tetrahymena pyriformis

>  <Test duration>
48h

$$$$

  Mrv1808 07152009203D          

 13 13  0  0  0  0            999 V2000
   -0.6507    2.5116    0.0745 O   0  0  0  0  0  0  0  0  0  0  0  0
   -0.3221    1.1924   -0.0147 C   0  0  0  0  0  0  0  0  0  0  0  0
   -2.0347    2.8266    0.2136 C   0  0  0  0  0  0  0  0  0  0  0  0
    1.0098    0.8014   -0.1527 C   0  0  0  0  0  0  0  0  0  0  0  0
   -1.3303    0.2297    0.0329 C   0  0  0  0  0  0  0  0  0  0  0  0
    1.9951    1.7426   -0.2001 O   0  0  0  0  0  0  0  0  0  0  0  0
    1.3334   -0.5525   -0.2431 C   0  0  0  0  0  0  0  0  0  0  0  0
   -1.0068   -1.1240   -0.0576 C   0  0  0  0  0  0  0  0  0  0  0  0
    2.6301   -0.9471   -0.3800 O   0  0  0  0  0  0  0  0  0  0  0  0
    0.3250   -1.5152   -0.1956 C   0  0  0  0  0  0  0  0  0  0  0  0
   -2.0583   -2.1278   -0.0084 C   0  0  0  0  0  0  0  0  0  0  0  0
    3.3630   -1.1917    0.8187 C   0  0  0  0  0  0  0  0  0  0  0  0
   -3.2536   -1.8459    0.1124 O   0  0  0  0  0  0  0  0  0  0  0  0
  1  2  1  0  0  0  0
  1  3  1  0  0  0  0
  2  4  2  0  0  0  0
  2  5  1  0  0  0  0
  6  4  1  0  0  0  0
  7  4  1  0  0  0  0
  8  5  2  0  0  0  0
  9  7  1  0  0  0  0
  7 10  2  0  0  0  0
  8 10  1  0  0  0  0
  8 11  1  0  0  0  0
  9 12  1  0  0  0  0
 13 11  2  0  0  0  0
M  END
>  <Name>
4-hydroxy-3,5-dimethoxybenzaldehyde

>  <IGC50>
3.17

>  <CAS>
134-96-3

>  <SET>
ws

>  <Species>
Tetrahymena pyriformis

>  <Test duration>
48h

$$$$

  Mrv1808 07152009202D          

 11 11  0  0  0  0            999 V2000
    1.2385   -1.4290    0.0000 C   0  0  0  0  0  0  0  0  0  0  0  0
    1.6484   -0.7160    0.0000 C   0  0  0  0  0  0  0  0  0  0  0  0
    1.6484   -2.1450    0.0000 C   0  0  0  0  0  0  0  0  0  0  0  0
    0.4128   -1.4290    0.0000 C   0  0  0  0  0  0  0  0  0  0  0  0
    1.2385    0.0000    0.0000 O   0  0  0  0  0  0  0  0  0  0  0  0
    2.4741   -2.1450    0.0000 N   0  3  0  0  0  0  0  0  0  0  0  0
    1.2385   -2.8580    0.0000 C   0  0  0  0  0  0  0  0  0  0  0  0
    0.0000   -2.1450    0.0000 C   0  0  0  0  0  0  0  0  0  0  0  0
    2.8869   -1.4290    0.0000 O   0  5  0  0  0  0  0  0  0  0  0  0
    2.8869   -2.8580    0.0000 O   0  0  0  0  0  0  0  0  0  0  0  0
    0.4128   -2.8580    0.0000 C   0  0  0  0  0  0  0  0  0  0  0  0
  1  2  1  0  0  0  0
  1  3  2  0  0  0  0
  1  4  1  0  0  0  0
  2  5  2  0  0  0  0
  3  6  1  0  0  0  0
  3  7  1  0  0  0  0
  8  4  2  0  0  0  0
  6  9  1  0  0  0  0
  6 10  2  0  0  0  0
  7 11  2  0  0  0  0
 11  8  1  0  0  0  0
M  CHG  2   6   1   9  -1
M  END
>  <Name>
Benzaldehyde, 2-nitro-

>  <IGC50>
3.17

>  <CAS>
552-89-6

>  <SET>
ws

>  <Species>
Tetrahymena pyriformis

>  <Test duration>
48h

$$$$

  Mrv1808 07152009202D          

  9  8  0  0  0  0            999 V2000
    3.5843   -0.8283    0.0000 C   0  0  0  0  0  0  0  0  0  0  0  0
    4.3021   -1.2349    0.0000 C   0  0  0  0  0  0  0  0  0  0  0  0
    2.8664   -1.2349    0.0000 O   0  0  0  0  0  0  0  0  0  0  0  0
    3.5843    0.0000    0.0000 O   0  0  0  0  0  0  0  0  0  0  0  0
    5.0200   -0.8283    0.0000 C   0  0  0  0  0  0  0  0  0  0  0  0
    2.1536   -0.8283    0.0000 C   0  0  0  0  0  0  0  0  0  0  0  0
    1.4357   -1.2349    0.0000 C   0  0  0  0  0  0  0  0  0  0  0  0
    0.7178   -0.8283    0.0000 C   0  0  0  0  0  0  0  0  0  0  0  0
    0.0000   -1.2349    0.0000 C   0  0  0  0  0  0  0  0  0  0  0  0
  1  2  1  0  0  0  0
  1  3  1  0  0  0  0
  1  4  2  0  0  0  0
  2  5  1  0  0  0  0
  3  6  1  0  0  0  0
  6  7  1  0  0  0  0
  7  8  1  0  0  0  0
  8  9  1  0  0  0  0
M  END
>  <Name>
Propanoic acid, butyl ester

>  <IGC50>
3.17

>  <CAS>
590-01-2

>  <SET>
ws

>  <Species>
Tetrahymena pyriformis

>  <Test duration>
48h

$$$$

  Mrv1808 07152009203D          

  9  9  0  0  0  0            999 V2000
    0.0000    0.0000    0.0000 Cl  0  0  0  0  0  0  0  0  0  0  0  0
    0.5600    0.5000   -1.6200 C   0  0  0  0  0  0  0  0  0  0  0  0
   -0.6000    0.4200   -2.6000 C   0  0  0  0  0  0  0  0  0  0  0  0
   -1.2000   -0.9400   -2.6200 C   0  0  0  0  0  0  0  0  0  0  0  0
   -2.5600   -1.1200   -2.9200 C   0  0  0  0  0  0  0  0  0  0  0  0
   -0.4000   -2.0800   -2.3400 C   0  0  0  0  0  0  0  0  0  0  0  0
   -3.1400   -2.4000   -2.9400 C   0  0  0  0  0  0  0  0  0  0  0  0
   -0.9800   -3.3600   -2.3600 C   0  0  0  0  0  0  0  0  0  0  0  0
   -2.3400   -3.5200   -2.6600 C   0  0  0  0  0  0  0  0  0  0  0  0
  1  2  1  0  0  0  0
  2  3  1  0  0  0  0
  3  4  1  0  0  0  0
  4  5  2  0  0  0  0
  4  6  1  0  0  0  0
  5  7  1  0  0  0  0
  8  6  2  0  0  0  0
  7  9  2  0  0  0  0
  9  8  1  0  0  0  0
M  END
>  <Name>
1-chloro-2-ethylbenzene

>  <IGC50>
3.17

>  <CAS>
622-24-2

>  <SET>
ws

>  <Species>
Tetrahymena pyriformis

>  <Test duration>
48h

$$$$

  Mrv1808 07152009202D          

  9  8  0  0  0  0            999 V2000
    0.0000   -2.8540    0.0000 C   0  0  0  0  0  0  0  0  0  0  0  0
    0.4125   -2.1368    0.0000 C   0  0  0  0  0  0  0  0  0  0  0  0
    1.2375   -2.1368    0.0000 C   0  0  0  0  0  0  0  0  0  0  0  0
    1.6500   -1.4307    0.0000 C   0  0  0  0  0  0  0  0  0  0  0  0
    2.4787   -1.4307    0.0000 C   0  0  0  0  0  0  0  0  0  0  0  0
    2.8912   -2.1368    0.0000 C   0  0  0  0  0  0  0  0  0  0  0  0
    2.8912   -0.7135    0.0000 C   0  0  0  0  0  0  0  0  0  0  0  0
    3.7162   -2.1368    0.0000 O   0  0  0  0  0  0  0  0  0  0  0  0
    2.4787    0.0000    0.0000 C   0  0  0  0  0  0  0  0  0  0  0  0
  1  2  1  0  0  0  0
  2  3  1  0  0  0  0
  3  4  1  0  0  0  0
  4  5  1  0  0  0  0
  5  6  1  0  0  0  0
  5  7  1  0  0  0  0
  6  8  1  0  0  0  0
  7  9  1  0  0  0  0
M  END
>  <Name>
1-Hexanol, 2-ethyl-

>  <IGC50>
3.167

>  <CAS>
104-76-7

>  <SET>
ws

>  <Species>
Tetrahymena pyriformis

>  <Test duration>
48h

$$$$

  Mrv1808 07152009202D          

  9  8  0  0  0  0            999 V2000
    0.7114   -0.4178    0.0000 C   0  0  0  0  0  0  0  0  0  0  0  0
    0.7114   -1.2386    0.0000 O   0  0  0  0  0  0  0  0  0  0  0  0
    1.4227    0.0000    0.0000 O   0  0  0  0  0  0  0  0  0  0  0  0
    0.0000    0.0000    0.0000 C   0  0  0  0  0  0  0  0  0  0  0  0
    2.1340   -0.4178    0.0000 C   0  0  0  0  0  0  0  0  0  0  0  0
    2.8404    0.0000    0.0000 C   0  0  0  0  0  0  0  0  0  0  0  0
    3.5517   -0.4178    0.0000 C   0  0  0  0  0  0  0  0  0  0  0  0
    4.2630    0.0000    0.0000 C   0  0  0  0  0  0  0  0  0  0  0  0
    4.9744   -0.4178    0.0000 C   0  0  0  0  0  0  0  0  0  0  0  0
  1  2  2  0  0  0  0
  1  3  1  0  0  0  0
  1  4  1  0  0  0  0
  3  5  1  0  0  0  0
  5  6  1  0  0  0  0
  6  7  1  0  0  0  0
  7  8  1  0  0  0  0
  8  9  1  0  0  0  0
M  END
>  <Name>
Acetic acid, pentyl ester

>  <IGC50>
3.163

>  <CAS>
628-63-7

>  <SET>
ws

>  <Species>
Tetrahymena pyriformis

>  <Test duration>
48h

$$$$

  Mrv1808 07152009202D          

  9  8  0  0  0  0            999 V2000
    1.2375   -1.4307    0.0000 C   0  0  0  0  0  0  0  0  0  0  0  0
    1.6499   -0.7135    0.0000 C   0  0  0  0  0  0  0  0  0  0  0  0
    0.4125   -1.4307    0.0000 C   0  0  0  0  0  0  0  0  0  0  0  0
    1.6499   -2.1441    0.0000 C   0  0  0  0  0  0  0  0  0  0  0  0
    1.2375    0.0000    0.0000 C   0  0  0  0  0  0  0  0  0  0  0  0
    0.0000   -2.1441    0.0000 O   0  0  0  0  0  0  0  0  0  0  0  0
    2.4786   -2.1441    0.0000 C   0  0  0  0  0  0  0  0  0  0  0  0
    2.8911   -1.4307    0.0000 C   0  0  0  0  0  0  0  0  0  0  0  0
    3.7161   -1.4307    0.0000 C   0  0  0  0  0  0  0  0  0  0  0  0
  1  2  1  0  0  0  0
  1  3  1  0  0  0  0
  1  4  1  0  0  0  0
  2  5  1  0  0  0  0
  3  6  2  0  0  0  0
  4  7  1  0  0  0  0
  7  8  1  0  0  0  0
  8  9  1  0  0  0  0
M  END
>  <Name>
Hexanal, 2-ethyl-

>  <IGC50>
3.161

>  <CAS>
123-05-7

>  <SET>
ws

>  <Species>
Tetrahymena pyriformis

>  <Test duration>
48h

$$$$

  Mrv1808 07152009202D          

  9  9  0  0  0  0            999 V2000
    1.2385   -0.7130    0.0000 C   0  0  0  0  0  0  0  0  0  0  0  0
    1.6484   -1.4290    0.0000 C   0  0  0  0  0  0  0  0  0  0  0  0
    0.4128   -0.7130    0.0000 C   0  0  0  0  0  0  0  0  0  0  0  0
    1.6484    0.0000    0.0000 O   0  0  0  0  0  0  0  0  0  0  0  0
    2.4740   -1.4290    0.0000 C   0  0  0  0  0  0  0  0  0  0  0  0
    1.2385   -2.1420    0.0000 C   0  0  0  0  0  0  0  0  0  0  0  0
    0.0000   -1.4290    0.0000 C   0  0  0  0  0  0  0  0  0  0  0  0
    2.8868   -2.1420    0.0000 C   0  0  0  0  0  0  0  0  0  0  0  0
    0.4128   -2.1420    0.0000 C   0  0  0  0  0  0  0  0  0  0  0  0
  1  2  2  0  0  0  0
  1  3  1  0  0  0  0
  1  4  1  0  0  0  0
  2  5  1  0  0  0  0
  2  6  1  0  0  0  0
  7  3  2  0  0  0  0
  5  8  1  0  0  0  0
  6  9  2  0  0  0  0
  9  7  1  0  0  0  0
M  END
>  <Name>
Phenol, 2-ethyl-

>  <IGC50>
3.16

>  <CAS>
90-00-6

>  <SET>
ws

>  <Species>
Tetrahymena pyriformis

>  <Test duration>
48h

$$$$

  Mrv1808 07152009202D          

 12 12  0  0  0  0            999 V2000
    5.0612    0.4183    0.0000 C   0  0  0  0  0  0  0  0  0  0  0  0
    5.0612    1.2130    0.0000 C   0  0  0  0  0  0  0  0  0  0  0  0
    4.3083    0.0000    0.0000 C   0  0  0  0  0  0  0  0  0  0  0  0
    4.3083    1.6313    0.0000 C   0  0  0  0  0  0  0  0  0  0  0  0
    3.5972    0.4183    0.0000 C   0  0  0  0  0  0  0  0  0  0  0  0
    3.5972    1.2130    0.0000 C   0  0  0  0  0  0  0  0  0  0  0  0
    2.8443    0.0000    0.0000 C   0  0  0  0  0  0  0  0  0  0  0  0
    2.1751    0.4183    0.0000 C   0  0  0  0  0  0  0  0  0  0  0  0
    1.4222    0.0000    0.0000 C   0  0  0  0  0  0  0  0  0  0  0  0
    2.1751    1.2130    0.0000 O   0  0  0  0  0  0  0  0  0  0  0  0
    0.7111    0.4183    0.0000 C   0  0  0  0  0  0  0  0  0  0  0  0
    0.0000    0.0000    0.0000 C   0  0  0  0  0  0  0  0  0  0  0  0
  2  1  2  0  0  0  0
  1  3  1  0  0  0  0
  4  2  1  0  0  0  0
  3  5  2  0  0  0  0
  6  4  2  0  0  0  0
  5  6  1  0  0  0  0
  5  7  1  0  0  0  0
  7  8  1  0  0  0  0
  9  8  1  0  0  0  0
  8 10  1  0  0  0  0
 11  9  1  0  0  0  0
 12 11  1  0  0  0  0
M  END
>  <Name>
Benzeneethanol, alpha-propyl-

>  <IGC50>
3.16

>  <CAS>
705-73-7

>  <SET>
ws

>  <Species>
Tetrahymena pyriformis

>  <Test duration>
48h

$$$$

  Mrv1808 07152009202D          

 10 10  0  0  0  0            999 V2000
    1.9716    0.0737    0.0000 C   0  0  0  0  0  0  0  0  0  0  0  0
    1.1487    0.2460    0.0000 C   0  0  0  0  0  0  0  0  0  0  0  0
    2.6464   -0.0603    0.0000 N   0  0  0  0  0  0  0  0  0  0  0  0
    0.5967   -0.3268    0.0000 C   0  0  0  0  0  0  0  0  0  0  0  0
   -0.2499   -0.1500    0.0000 C   0  0  0  0  0  0  0  0  0  0  0  0
   -0.7976   -0.7729    0.0000 C   0  0  0  0  0  0  0  0  0  0  0  0
   -0.5239    0.6327    0.0000 C   0  0  0  0  0  0  0  0  0  0  0  0
   -1.6054   -0.6119    0.0000 C   0  0  0  0  0  0  0  0  0  0  0  0
   -1.3319    0.7903    0.0000 C   0  0  0  0  0  0  0  0  0  0  0  0
   -1.8735    0.1683    0.0000 C   0  0  0  0  0  0  0  0  0  0  0  0
  1  2  1  0  0  0  0
  1  3  3  0  0  0  0
  2  4  2  0  0  0  0
  4  5  1  0  0  0  0
  5  6  1  0  0  0  0
  5  7  2  0  0  0  0
  6  8  2  0  0  0  0
  9  7  1  0  0  0  0
  8 10  1  0  0  0  0
 10  9  2  0  0  0  0
M  END
>  <Name>
2-Propenenitrile, 3-phenyl-

>  <IGC50>
3.16

>  <CAS>
4360-47-8

>  <SET>
ws

>  <Species>
Tetrahymena pyriformis

>  <Test duration>
48h

$$$$

  Mrv1808 07152009202D          

 10 10  0  0  0  0            999 V2000
    2.4337    0.0000    0.0000 C   0  0  0  0  0  0  0  0  0  0  0  0
    2.0212    0.7425    0.0000 C   0  0  0  0  0  0  0  0  0  0  0  0
    3.3000    0.0000    0.0000 C   0  0  0  0  0  0  0  0  0  0  0  0
    2.4337    1.4437    0.0000 C   0  0  0  0  0  0  0  0  0  0  0  0
    1.1962    0.7425    0.0000 S   0  0  0  0  0  0  0  0  0  0  0  0
    3.6712    0.7425    0.0000 C   0  0  0  0  0  0  0  0  0  0  0  0
    3.2587    1.4437    0.0000 C   0  0  0  0  0  0  0  0  0  0  0  0
    0.8250    1.4437    0.0000 C   0  0  0  0  0  0  0  0  0  0  0  0
    0.8250    0.0000    0.0000 O   0  0  0  0  0  0  0  0  0  0  0  0
    0.0000    1.4437    0.0000 C   0  0  0  0  0  0  0  0  0  0  0  0
  2  1  2  0  0  0  0
  1  3  1  0  0  0  0
  4  2  1  0  0  0  0
  2  5  1  0  0  0  0
  3  6  2  0  0  0  0
  7  4  2  0  0  0  0
  5  8  1  0  0  0  0
  5  9  2  0  0  0  0
  6  7  1  0  0  0  0
 10  8  2  0  0  0  0
M  END
>  <Name>
Phenyl vinyl sulphoxide

>  <IGC50>
3.16

>  <CAS>
20451-53-0

>  <SET>
ws

>  <Species>
Tetrahymena pyriformis

>  <Test duration>
48h

$$$$

  Mrv1808 07152009202D          

  9  9  0  0  0  0            999 V2000
    2.8875    1.4026    0.0000 C   0  0  0  0  0  0  0  0  0  0  0  0
    2.4338    0.7012    0.0000 C   0  0  0  0  0  0  0  0  0  0  0  0
    2.4338    2.1038    0.0000 C   0  0  0  0  0  0  0  0  0  0  0  0
    1.6088    0.7012    0.0000 C   0  0  0  0  0  0  0  0  0  0  0  0
    2.8875    0.0000    0.0000 F   0  0  0  0  0  0  0  0  0  0  0  0
    1.6088    2.1038    0.0000 C   0  0  0  0  0  0  0  0  0  0  0  0
    1.2375    1.4026    0.0000 C   0  0  0  0  0  0  0  0  0  0  0  0
    0.4125    1.4026    0.0000 C   0  0  0  0  0  0  0  0  0  0  0  0
    0.0000    2.1038    0.0000 O   0  0  0  0  0  0  0  0  0  0  0  0
  2  1  2  0  0  0  0
  1  3  1  0  0  0  0
  4  2  1  0  0  0  0
  2  5  1  0  0  0  0
  3  6  2  0  0  0  0
  7  4  2  0  0  0  0
  6  7  1  0  0  0  0
  7  8  1  0  0  0  0
  8  9  2  0  0  0  0
M  END
>  <Name>
Benzaldehyde, m-fluoro- (8CI)

>  <IGC50>
3.154

>  <CAS>
456-48-4

>  <SET>
ws

>  <Species>
Tetrahymena pyriformis

>  <Test duration>
48h

$$$$

  Mrv1808 07152009203D          

 11 12  0  0  0  0            999 V2000
    2.8218    1.9127    1.9197 C   0  0  2  0  0  0  0  0  0  0  0  0
    3.6517    1.0243    1.0346 C   0  0  0  0  0  0  0  0  0  0  0  0
    3.2636    3.4146    2.0268 C   0  0  1  0  0  0  0  0  0  0  0  0
    2.7087    1.4560    3.4180 C   0  0  1  0  0  0  0  0  0  0  0  0
    1.3545    2.0738    1.4396 C   0  0  0  0  0  0  0  0  0  0  0  0
    4.6456    3.6663    2.6118 C   0  0  0  0  0  0  0  0  0  0  0  0
    3.2046    4.1595    0.6961 C   0  0  0  0  0  0  0  0  0  0  0  0
    2.0928    3.7730    2.9961 C   0  0  2  0  0  0  0  0  0  0  0  0
    3.8529    0.8625    3.9649 O   0  0  0  0  0  0  0  0  0  0  0  0
    2.2778    2.7655    4.1448 C   0  0  0  0  0  0  0  0  0  0  0  0
    0.8510    3.3129    2.2058 C   0  0  0  0  0  0  0  0  0  0  0  0
  1  2  1  0  0  0  0
  3  1  1  0  0  0  0
  1  4  1  0  0  0  0
  1  5  1  0  0  0  0
  3  6  1  0  0  0  0
  3  7  1  0  0  0  0
  8  3  1  0  0  0  0
  4  9  1  0  0  0  0
  4 10  1  0  0  0  0
  5 11  1  0  0  0  0
 10  8  1  0  0  0  0
 11  8  1  0  0  0  0
M  END
>  <Name>
Bicyclo(2.2.1)heptan-2-ol, 1,7,7-trimethyl-, (1R,2R,4R)-rel-

>  <IGC50>
3.15

>  <CAS>
124-76-5

>  <SET>
ws

>  <Species>
Tetrahymena pyriformis

>  <Test duration>
48h

$$$$

  Mrv1808 07152009203D          

 10 10  0  0  0  0            999 V2000
   -1.5421    1.3462   -0.1318 C   0  0  0  0  0  0  0  0  0  0  0  0
   -0.7265    0.1067   -0.0611 C   0  0  0  0  0  0  0  0  0  0  0  0
   -2.7197    1.3768    0.1515 O   0  0  0  0  0  0  0  0  0  0  0  0
    0.6829    0.1557   -0.0068 C   0  0  0  0  0  0  0  0  0  0  0  0
   -1.3529   -1.1406   -0.0567 C   0  0  0  0  0  0  0  0  0  0  0  0
    1.4317   -1.0270    0.0400 C   0  0  0  0  0  0  0  0  0  0  0  0
    1.2291    1.4212    0.0094 O   0  0  0  0  0  0  0  0  0  0  0  0
   -0.6086   -2.3134   -0.0117 C   0  0  0  0  0  0  0  0  0  0  0  0
    0.7791   -2.2535    0.0351 C   0  0  0  0  0  0  0  0  0  0  0  0
    2.6316    1.5320    0.0106 C   0  0  0  0  0  0  0  0  0  0  0  0
  1  2  1  0  0  0  0
  1  3  2  0  0  0  0
  2  4  1  0  0  0  0
  2  5  2  0  0  0  0
  4  6  2  0  0  0  0
  4  7  1  0  0  0  0
  8  5  1  0  0  0  0
  6  9  1  0  0  0  0
  7 10  1  0  0  0  0
  9  8  2  0  0  0  0
M  END
>  <Name>
Benzaldehyde, 2-methoxy-

>  <IGC50>
3.15

>  <CAS>
135-02-4

>  <SET>
ws

>  <Species>
Tetrahymena pyriformis

>  <Test duration>
48h

$$$$

  Mrv1808 07152009202D          

  9  9  0  0  0  0            999 V2000
    1.6706    0.6519    0.0000 C   0  0  0  0  0  0  0  0  0  0  0  0
    1.2631    1.3446    0.0000 C   0  0  0  0  0  0  0  0  0  0  0  0
    2.4448    0.6519    0.0000 C   0  0  0  0  0  0  0  0  0  0  0  0
    1.6706    2.0780    0.0000 C   0  0  0  0  0  0  0  0  0  0  0  0
    0.3667    1.3446    0.0000 C   0  0  0  0  0  0  0  0  0  0  0  0
    2.8522    1.3854    0.0000 C   0  0  0  0  0  0  0  0  0  0  0  0
    2.8522    0.0000    0.0000 Cl  0  0  0  0  0  0  0  0  0  0  0  0
    2.4040    2.0780    0.0000 C   0  0  0  0  0  0  0  0  0  0  0  0
    0.0000    0.6112    0.0000 O   0  0  0  0  0  0  0  0  0  0  0  0
  2  1  2  0  0  0  0
  1  3  1  0  0  0  0
  4  2  1  0  0  0  0
  2  5  1  0  0  0  0
  3  6  2  0  0  0  0
  3  7  1  0  0  0  0
  8  4  2  0  0  0  0
  5  9  1  0  0  0  0
  6  8  1  0  0  0  0
M  END
>  <Name>
3-Chlorobenzyl alcohol

>  <IGC50>
3.15

>  <CAS>
873-63-2

>  <SET>
ws

>  <Species>
Tetrahymena pyriformis

>  <Test duration>
48h

$$$$

  Mrv1808 07152009202D          

 11 11  0  0  0  0            999 V2000
    3.3413    2.8050    0.0000 C   0  0  0  0  0  0  0  0  0  0  0  0
    2.9288    2.1038    0.0000 C   0  0  0  0  0  0  0  0  0  0  0  0
    4.1251    2.8050    0.0000 C   0  0  0  0  0  0  0  0  0  0  0  0
    3.3413    1.3613    0.0000 C   0  0  0  0  0  0  0  0  0  0  0  0
    2.1038    2.1038    0.0000 C   0  0  0  0  0  0  0  0  0  0  0  0
    4.5376    2.1038    0.0000 C   0  0  0  0  0  0  0  0  0  0  0  0
    4.1251    1.3613    0.0000 C   0  0  0  0  0  0  0  0  0  0  0  0
    1.6913    1.3613    0.0000 C   0  0  0  0  0  0  0  0  0  0  0  0
    0.8663    1.3613    0.0000 C   0  0  0  0  0  0  0  0  0  0  0  0
    0.4538    0.7013    0.0000 C   0  0  0  0  0  0  0  0  0  0  0  0
    0.0000    0.0000    0.0000 N   0  0  0  0  0  0  0  0  0  0  0  0
  1  2  2  0  0  0  0
  3  1  1  0  0  0  0
  2  4  1  0  0  0  0
  2  5  1  0  0  0  0
  6  3  2  0  0  0  0
  4  7  2  0  0  0  0
  5  8  1  0  0  0  0
  7  6  1  0  0  0  0
  8  9  1  0  0  0  0
  9 10  1  0  0  0  0
 10 11  3  0  0  0  0
M  END
>  <Name>
Butyronitrile, 4-phenyl- (8CI)

>  <IGC50>
3.15

>  <CAS>
2046-18-6

>  <SET>
ws

>  <Species>
Tetrahymena pyriformis

>  <Test duration>
48h

$$$$

  Mrv1808 07152009202D          

  9  9  0  0  0  0            999 V2000
    0.0000   -1.6499    0.0000 O   0  0  0  0  0  0  0  0  0  0  0  0
    0.7148   -1.2381    0.0000 C   0  0  0  0  0  0  0  0  0  0  0  0
    0.7148   -0.4118    0.0000 C   0  0  0  0  0  0  0  0  0  0  0  0
    1.4297   -1.6499    0.0000 C   0  0  0  0  0  0  0  0  0  0  0  0
    1.4297    0.0000    0.0000 C   0  0  0  0  0  0  0  0  0  0  0  0
    0.0000    0.0000    0.0000 C   0  0  0  0  0  0  0  0  0  0  0  0
    2.1445   -1.2381    0.0000 C   0  0  0  0  0  0  0  0  0  0  0  0
    2.1445   -0.4118    0.0000 C   0  0  0  0  0  0  0  0  0  0  0  0
    2.8594   -1.6499    0.0000 C   0  0  0  0  0  0  0  0  0  0  0  0
  1  2  1  0  0  0  0
  2  3  2  0  0  0  0
  2  4  1  0  0  0  0
  3  5  1  0  0  0  0
  3  6  1  0  0  0  0
  7  4  2  0  0  0  0
  5  8  2  0  0  0  0
  8  7  1  0  0  0  0
  7  9  1  0  0  0  0
M  END
>  <Name>
Phenol, 2,5-dimethyl-

>  <IGC50>
3.14

>  <CAS>
95-87-4

>  <SET>
ws

>  <Species>
Tetrahymena pyriformis

>  <Test duration>
48h

$$$$

  Mrv1808 07152009202D          

  9  9  0  0  0  0            999 V2000
    0.0000   -1.4279    0.0000 O   0  0  0  0  0  0  0  0  0  0  0  0
    0.4125   -0.7154    0.0000 N   0  3  0  0  0  0  0  0  0  0  0  0
    1.2375   -0.7154    0.0000 C   0  0  0  0  0  0  0  0  0  0  0  0
    0.0000    0.0000    0.0000 O   0  5  0  0  0  0  0  0  0  0  0  0
    1.6471    0.0000    0.0000 C   0  0  0  0  0  0  0  0  0  0  0  0
    1.6471   -1.4279    0.0000 C   0  0  0  0  0  0  0  0  0  0  0  0
    2.4721    0.0000    0.0000 C   0  0  0  0  0  0  0  0  0  0  0  0
    2.4721   -1.4279    0.0000 C   0  0  0  0  0  0  0  0  0  0  0  0
    2.8846   -0.7154    0.0000 C   0  0  0  0  0  0  0  0  0  0  0  0
  1  2  2  0  0  0  0
  2  3  1  0  0  0  0
  2  4  1  0  0  0  0
  3  5  2  0  0  0  0
  3  6  1  0  0  0  0
  5  7  1  0  0  0  0
  8  6  2  0  0  0  0
  7  9  2  0  0  0  0
  9  8  1  0  0  0  0
M  CHG  2   2   1   4  -1
M  END
>  <Name>
Benzene, nitro-

>  <IGC50>
3.14

>  <CAS>
98-95-3

>  <SET>
ws

>  <Species>
Tetrahymena pyriformis

>  <Test duration>
48h

$$$$

  Mrv1808 07152009202D          

  9  9  0  0  0  0            999 V2000
    2.8594    0.0000    0.0000 O   0  0  0  0  0  0  0  0  0  0  0  0
    2.1445   -0.4118    0.0000 C   0  0  0  0  0  0  0  0  0  0  0  0
    2.1445   -1.2381    0.0000 C   0  0  0  0  0  0  0  0  0  0  0  0
    1.4297    0.0000    0.0000 C   0  0  0  0  0  0  0  0  0  0  0  0
    2.8594   -1.6499    0.0000 C   0  0  0  0  0  0  0  0  0  0  0  0
    1.4297   -1.6499    0.0000 C   0  0  0  0  0  0  0  0  0  0  0  0
    0.7148   -0.4118    0.0000 C   0  0  0  0  0  0  0  0  0  0  0  0
    0.7148   -1.2381    0.0000 C   0  0  0  0  0  0  0  0  0  0  0  0
    0.0000   -1.6499    0.0000 C   0  0  0  0  0  0  0  0  0  0  0  0
  1  2  1  0  0  0  0
  2  3  2  0  0  0  0
  2  4  1  0  0  0  0
  3  5  1  0  0  0  0
  3  6  1  0  0  0  0
  7  4  2  0  0  0  0
  6  8  2  0  0  0  0
  8  7  1  0  0  0  0
  8  9  1  0  0  0  0
M  END
>  <Name>
Phenol, 2,4-dimethyl-

>  <IGC50>
3.14

>  <CAS>
105-67-9

>  <SET>
ws

>  <Species>
Tetrahymena pyriformis

>  <Test duration>
48h

$$$$

  Mrv1808 07152009202D          

 10 10  0  0  0  0            999 V2000
    2.4679    0.0000    0.0000 C   0  0  0  0  0  0  0  0  0  0  0  0
    3.3463    0.0000    0.0000 C   0  0  0  0  0  0  0  0  0  0  0  0
    2.0914    0.7111    0.0000 C   0  0  0  0  0  0  0  0  0  0  0  0
    3.7646    0.7111    0.0000 C   0  0  0  0  0  0  0  0  0  0  0  0
    2.4679    1.3803    0.0000 C   0  0  0  0  0  0  0  0  0  0  0  0
    1.2549    0.7111    0.0000 C   0  0  0  0  0  0  0  0  0  0  0  0
    3.3463    1.3803    0.0000 C   0  0  0  0  0  0  0  0  0  0  0  0
    4.6011    0.7111    0.0000 Cl  0  0  0  0  0  0  0  0  0  0  0  0
    0.8784    1.3803    0.0000 C   0  0  0  0  0  0  0  0  0  0  0  0
    0.0000    1.3803    0.0000 N   0  0  0  0  0  0  0  0  0  0  0  0
  2  1  2  0  0  0  0
  1  3  1  0  0  0  0
  4  2  1  0  0  0  0
  3  5  2  0  0  0  0
  3  6  1  0  0  0  0
  7  4  2  0  0  0  0
  4  8  1  0  0  0  0
  5  7  1  0  0  0  0
  6  9  1  0  0  0  0
 10  9  1  0  0  0  0
M  END
>  <Name>
4-Chlorobenzeneethanamine

>  <IGC50>
3.14

>  <CAS>
156-41-2

>  <SET>
ws

>  <Species>
Tetrahymena pyriformis

>  <Test duration>
48h

$$$$

  Mrv1808 07152009203D          

 14 13  0  0  0  0            999 V2000
    3.9009    2.3156    1.3124 C   0  0  0  0  0  0  0  0  0  0  0  0
    4.3898    3.6392    1.8936 C   0  0  2  0  0  0  0  0  0  0  0  0
    2.5928    2.0755    1.6160 O   0  0  0  0  0  0  0  0  0  0  0  0
    4.5271    1.4985    0.6710 O   0  0  0  0  0  0  0  0  0  0  0  0
    3.6799    4.7913    1.1872 C   0  0  0  0  0  0  0  0  0  0  0  0
    5.9065    3.7844    1.7525 C   0  0  0  0  0  0  0  0  0  0  0  0
    1.9840    0.8834    1.1129 C   0  0  0  0  0  0  0  0  0  0  0  0
    2.9983    5.5889    2.0559 O   0  0  0  0  0  0  0  0  0  0  0  0
    3.6747    5.0461    0.0000 O   0  0  0  0  0  0  0  0  0  0  0  0
    6.4444    4.9354    2.5886 C   0  0  0  0  0  0  0  0  0  0  0  0
    0.5414    0.9115    1.5796 C   0  0  0  0  0  0  0  0  0  0  0  0
    2.2838    6.7122    1.5333 C   0  0  0  0  0  0  0  0  0  0  0  0
    7.9428    5.0658    2.4333 C   0  0  0  0  0  0  0  0  0  0  0  0
    1.6487    7.4055    2.7231 C   0  0  0  0  0  0  0  0  0  0  0  0
  1  2  1  0  0  0  0
  1  3  1  0  0  0  0
  1  4  2  0  0  0  0
  2  5  1  0  0  0  0
  2  6  1  0  0  0  0
  3  7  1  0  0  0  0
  5  8  1  0  0  0  0
  5  9  2  0  0  0  0
  6 10  1  0  0  0  0
  7 11  1  0  0  0  0
  8 12  1  0  0  0  0
 10 13  1  0  0  0  0
 12 14  1  0  0  0  0
M  END
>  <Name>
Diethyl propylmalonate

>  <IGC50>
3.134

>  <CAS>
2163-48-6

>  <SET>
ws

>  <Species>
Tetrahymena pyriformis

>  <Test duration>
48h

$$$$

  Mrv1808 07152009203D          

  9  9  0  0  0  0            999 V2000
   -2.4724    0.8803   -0.0007 O   0  0  0  0  0  0  0  0  0  0  0  0
   -1.1507    0.5472    0.0001 C   0  0  0  0  0  0  0  0  0  0  0  0
   -0.7491   -0.7886   -0.0005 C   0  0  0  0  0  0  0  0  0  0  0  0
   -0.1946    1.5628    0.0004 C   0  0  0  0  0  0  0  0  0  0  0  0
   -1.7071   -1.8262    0.0008 N   0  0  0  0  0  0  0  0  0  0  0  0
    0.6085   -1.1088   -0.0004 C   0  0  0  0  0  0  0  0  0  0  0  0
    1.1631    1.2426    0.0004 C   0  0  0  0  0  0  0  0  0  0  0  0
    1.5647   -0.0932    0.0001 C   0  0  0  0  0  0  0  0  0  0  0  0
    2.9376   -0.4162   -0.0003 N   0  0  0  0  0  0  0  0  0  0  0  0
  1  2  1  0  0  0  0
  3  2  2  0  0  0  0
  2  4  1  0  0  0  0
  5  3  1  0  0  0  0
  3  6  1  0  0  0  0
  7  4  2  0  0  0  0
  8  6  2  0  0  0  0
  8  7  1  0  0  0  0
  9  8  1  0  0  0  0
M  END
>  <Name>
2,4-diaminophenol

>  <IGC50>
3.13

>  <CAS>
95-86-3

>  <SET>
ws

>  <Species>
Tetrahymena pyriformis

>  <Test duration>
48h

$$$$

  Mrv1808 07152009202D          

  9  9  0  0  0  0            999 V2000
   -1.1675    0.0544    0.0000 C   0  0  0  0  0  0  0  0  0  0  0  0
   -0.7087   -0.6313    0.0000 C   0  0  0  0  0  0  0  0  0  0  0  0
   -0.8214    0.8071    0.0000 C   0  0  0  0  0  0  0  0  0  0  0  0
   -1.9723    0.0379    0.0000 O   0  0  0  0  0  0  0  0  0  0  0  0
    0.1134   -0.5535    0.0000 C   0  0  0  0  0  0  0  0  0  0  0  0
   -0.0069    0.8712    0.0000 C   0  0  0  0  0  0  0  0  0  0  0  0
    0.4623    0.1969    0.0000 C   0  0  0  0  0  0  0  0  0  0  0  0
    0.5335   -1.2389    0.0000 O   0  0  0  0  0  0  0  0  0  0  0  0
    1.4544    0.2907    0.0000 Cl  0  0  0  0  0  0  0  0  0  0  0  0
  1  2  1  0  0  0  0
  1  3  2  0  0  0  0
  1  4  1  0  0  0  0
  2  5  2  0  0  0  0
  6  3  1  0  0  0  0
  5  7  1  0  0  0  0
  5  8  1  0  0  0  0
  7  6  2  0  0  0  0
  7  9  1  0  0  0  0
M  END
>  <Name>
1,3-Benzenediol, 4-chloro-

>  <IGC50>
3.13

>  <CAS>
95-88-5

>  <SET>
ws

>  <Species>
Tetrahymena pyriformis

>  <Test duration>
48h

$$$$

  Mrv1808 07152009203D          

 12 12  0  0  0  0            999 V2000
    3.4530    1.0975    0.3845 O   0  5  0  0  0  0  0  0  0  0  0  0
    2.8575   -0.0001    0.2613 N   0  3  0  0  0  0  0  0  0  0  0  0
    3.4531   -1.0977    0.3840 O   0  0  0  0  0  0  0  0  0  0  0  0
    1.4669   -0.0001   -0.0257 C   0  0  0  0  0  0  0  0  0  0  0  0
    0.7836    1.2080   -0.1660 C   0  0  0  0  0  0  0  0  0  0  0  0
    0.7836   -1.2081   -0.1663 C   0  0  0  0  0  0  0  0  0  0  0  0
   -0.5826    1.2082   -0.4468 C   0  0  0  0  0  0  0  0  0  0  0  0
   -0.5827   -1.2079   -0.4472 C   0  0  0  0  0  0  0  0  0  0  0  0
   -1.2658    0.0003   -0.5874 C   0  0  0  0  0  0  0  0  0  0  0  0
   -2.7266    0.0002   -0.8870 C   0  0  0  0  0  0  0  0  0  0  0  0
   -3.5105    0.0003    0.3576 C   0  0  0  0  0  0  0  0  0  0  0  0
   -4.1295   -0.0007    1.3391 N   0  0  0  0  0  0  0  0  0  0  0  0
  1  2  1  0  0  0  0
  3  2  2  0  0  0  0
  2  4  1  0  0  0  0
  4  5  2  0  0  0  0
  4  6  1  0  0  0  0
  7  5  1  0  0  0  0
  8  6  2  0  0  0  0
  9  7  2  0  0  0  0
  9  8  1  0  0  0  0
  9 10  1  0  0  0  0
 10 11  1  0  0  0  0
 12 11  3  0  0  0  0
M  CHG  2   1  -1   2   1
M  END
>  <Name>
2-(4-nitrophenyl)acetonitrile

>  <IGC50>
3.13

>  <CAS>
555-21-5

>  <SET>
ws

>  <Species>
Tetrahymena pyriformis

>  <Test duration>
48h

$$$$

  Mrv1808 07152009202D          

  8  8  0  0  0  0            999 V2000
   -1.8217    0.2309    0.0000 O   0  0  0  0  0  0  0  0  0  0  0  0
   -1.1877   -0.2969    0.0000 C   0  0  0  0  0  0  0  0  0  0  0  0
   -0.4135   -0.0117    0.0000 C   0  0  0  0  0  0  0  0  0  0  0  0
    0.2722   -0.4703    0.0000 C   0  0  0  0  0  0  0  0  0  0  0  0
   -0.1893    0.7822    0.0000 O   0  0  0  0  0  0  0  0  0  0  0  0
    0.9203    0.0401    0.0000 C   0  0  0  0  0  0  0  0  0  0  0  0
    0.6351    0.8143    0.0000 C   0  0  0  0  0  0  0  0  0  0  0  0
    1.0938    1.5000    0.0000 Br  0  0  0  0  0  0  0  0  0  0  0  0
  1  2  2  0  0  0  0
  2  3  1  0  0  0  0
  3  4  2  0  0  0  0
  3  5  1  0  0  0  0
  4  6  1  0  0  0  0
  7  5  1  0  0  0  0
  6  7  2  0  0  0  0
  7  8  1  0  0  0  0
M  END
>  <Name>
2-Furaldehyde,5-bromo- (6CI,7CI,8CI)

>  <IGC50>
3.13

>  <CAS>
1899-24-7

>  <SET>
ws

>  <Species>
Tetrahymena pyriformis

>  <Test duration>
48h

$$$$

  Mrv1808 07152009203D          

 10  9  0  0  0  0            999 V2000
    6.5278    0.6996    3.4873 C   0  0  0  0  0  0  0  0  0  0  0  0
    5.6596    1.2485    2.3647 C   0  0  0  0  0  0  0  0  0  0  0  0
    7.0764    1.8344    4.3348 C   0  0  0  0  0  0  0  0  0  0  0  0
    4.1900    1.3595    2.6927 C   0  0  0  0  0  0  0  0  0  0  0  0
    6.1458    1.5583    1.2952 O   0  0  0  0  0  0  0  0  0  0  0  0
    8.4300    2.3512    3.9408 C   0  0  0  0  0  0  0  0  0  0  0  0
    6.4484    2.2813    5.2750 O   0  0  0  0  0  0  0  0  0  0  0  0
    3.3479    1.9746    1.5892 C   0  0  0  0  0  0  0  0  0  0  0  0
    1.8911    2.0830    2.0121 C   0  0  0  0  0  0  0  0  0  0  0  0
    1.0500    2.7188    0.9283 C   0  0  0  0  0  0  0  0  0  0  0  0
  1  2  1  0  0  0  0
  1  3  1  0  0  0  0
  2  4  1  0  0  0  0
  2  5  2  0  0  0  0
  3  6  1  0  0  0  0
  3  7  2  0  0  0  0
  4  8  1  0  0  0  0
  8  9  1  0  0  0  0
  9 10  1  0  0  0  0
M  END
>  <Name>
Octane-2,4-dione

>  <IGC50>
3.13

>  <CAS>
14090-87-0

>  <SET>
ws

>  <Species>
Tetrahymena pyriformis

>  <Test duration>
48h

$$$$

  Mrv1808 07152009202D          

 11 11  0  0  0  0            999 V2000
    2.1599    0.4235    0.0000 C   0  0  0  0  0  0  0  0  0  0  0  0
    2.1599    1.2705    0.0000 C   0  0  0  0  0  0  0  0  0  0  0  0
    1.4823    0.0423    0.0000 C   0  0  0  0  0  0  0  0  0  0  0  0
    2.9223    0.0000    0.0000 O   0  0  0  0  0  0  0  0  0  0  0  0
    1.4823    1.6517    0.0000 C   0  0  0  0  0  0  0  0  0  0  0  0
    2.9223    1.6941    0.0000 C   0  0  0  0  0  0  0  0  0  0  0  0
    0.7623    0.4659    0.0000 C   0  0  0  0  0  0  0  0  0  0  0  0
    0.7623    1.2705    0.0000 C   0  0  0  0  0  0  0  0  0  0  0  0
    1.4823    2.4988    0.0000 O   0  0  0  0  0  0  0  0  0  0  0  0
    2.9223    2.5411    0.0000 O   0  0  0  0  0  0  0  0  0  0  0  0
    0.0000    0.0423    0.0000 O   0  0  0  0  0  0  0  0  0  0  0  0
  2  1  2  0  0  0  0
  1  3  1  0  0  0  0
  1  4  1  0  0  0  0
  5  2  1  0  0  0  0
  2  6  1  0  0  0  0
  3  7  2  0  0  0  0
  8  5  2  0  0  0  0
  5  9  1  0  0  0  0
  6 10  2  0  0  0  0
  7  8  1  0  0  0  0
  7 11  1  0  0  0  0
M  END
>  <Name>
Benzaldehyde, 2,4,6-trihydroxy-

>  <IGC50>
3.128

>  <CAS>
487-70-7

>  <SET>
ws

>  <Species>
Tetrahymena pyriformis

>  <Test duration>
48h

$$$$

  Mrv1808 07152009202D          

  8  7  0  0  0  0            999 V2000
    2.8862    1.2548    0.0000 C   0  0  0  0  0  0  0  0  0  0  0  0
    2.1750    0.8366    0.0000 C   0  0  0  0  0  0  0  0  0  0  0  0
    3.6390    0.8366    0.0000 C   0  0  0  0  0  0  0  0  0  0  0  0
    1.4640    1.2548    0.0000 O   0  0  0  0  0  0  0  0  0  0  0  0
    2.1750    0.0000    0.0000 O   0  0  0  0  0  0  0  0  0  0  0  0
    4.3501    1.2548    0.0000 Br  0  0  0  0  0  0  0  0  0  0  0  0
    0.7110    0.8366    0.0000 C   0  0  0  0  0  0  0  0  0  0  0  0
    0.0000    1.2548    0.0000 C   0  0  0  0  0  0  0  0  0  0  0  0
  1  2  1  0  0  0  0
  1  3  1  0  0  0  0
  2  4  1  0  0  0  0
  2  5  2  0  0  0  0
  3  6  1  0  0  0  0
  4  7  1  0  0  0  0
  7  8  1  0  0  0  0
M  END
>  <Name>
Propionic acid, 3-bromo-, ethyl ester (8CI)

>  <IGC50>
3.126

>  <CAS>
539-74-2

>  <SET>
ws

>  <Species>
Tetrahymena pyriformis

>  <Test duration>
48h

$$$$

  Mrv1808 07152009202D          

 11 11  0  0  0  0            999 V2000
    1.2339   -2.1380    0.0000 C   0  0  0  0  0  0  0  0  0  0  0  0
    0.8226   -1.4266    0.0000 C   0  0  0  0  0  0  0  0  0  0  0  0
    2.0602   -2.1380    0.0000 C   0  0  0  0  0  0  0  0  0  0  0  0
    0.0000   -1.4266    0.0000 O   0  0  0  0  0  0  0  0  0  0  0  0
    1.2339   -0.7114    0.0000 C   0  0  0  0  0  0  0  0  0  0  0  0
    2.4715   -1.4266    0.0000 C   0  0  0  0  0  0  0  0  0  0  0  0
    2.0602   -0.7114    0.0000 C   0  0  0  0  0  0  0  0  0  0  0  0
    3.2941   -1.4266    0.0000 C   0  0  0  0  0  0  0  0  0  0  0  0
    3.7054   -2.1380    0.0000 O   0  0  0  0  0  0  0  0  0  0  0  0
    3.7054   -0.7114    0.0000 C   0  0  0  0  0  0  0  0  0  0  0  0
    3.2941    0.0000    0.0000 C   0  0  0  0  0  0  0  0  0  0  0  0
  1  2  2  0  0  0  0
  1  3  1  0  0  0  0
  2  4  1  0  0  0  0
  2  5  1  0  0  0  0
  6  3  2  0  0  0  0
  5  7  2  0  0  0  0
  7  6  1  0  0  0  0
  6  8  1  0  0  0  0
  8  9  2  0  0  0  0
  8 10  1  0  0  0  0
 10 11  1  0  0  0  0
M  END
>  <Name>
1-Propanone, 1-(4-hydroxyphenyl)-

>  <IGC50>
3.12

>  <CAS>
70-70-2

>  <SET>
ws

>  <Species>
Tetrahymena pyriformis

>  <Test duration>
48h

$$$$

  Mrv1808 07152009202D          

  9  9  0  0  0  0            999 V2000
    1.4388   -1.2408    0.0000 C   0  0  0  0  0  0  0  0  0  0  0  0
    1.4388   -2.0658    0.0000 C   0  0  0  0  0  0  0  0  0  0  0  0
    0.7227   -0.8250    0.0000 C   0  0  0  0  0  0  0  0  0  0  0  0
    0.7227   -2.4750    0.0000 C   0  0  0  0  0  0  0  0  0  0  0  0
    2.1516   -2.4750    0.0000 C   0  0  0  0  0  0  0  0  0  0  0  0
    0.0000   -1.2408    0.0000 C   0  0  0  0  0  0  0  0  0  0  0  0
    0.7227    0.0000    0.0000 O   0  0  0  0  0  0  0  0  0  0  0  0
    0.0000   -2.0658    0.0000 C   0  0  0  0  0  0  0  0  0  0  0  0
    0.7227   -3.3000    0.0000 C   0  0  0  0  0  0  0  0  0  0  0  0
  1  2  1  0  0  0  0
  1  3  2  0  0  0  0
  2  4  2  0  0  0  0
  2  5  1  0  0  0  0
  3  6  1  0  0  0  0
  3  7  1  0  0  0  0
  4  8  1  0  0  0  0
  4  9  1  0  0  0  0
  6  8  2  0  0  0  0
M  END
>  <Name>
Phenol, 3,4-dimethyl-

>  <IGC50>
3.12

>  <CAS>
95-65-8

>  <SET>
ws

>  <Species>
Tetrahymena pyriformis

>  <Test duration>
48h

$$$$

  Mrv1808 07152009202D          

 10 10  0  0  0  0            999 V2000
    0.7143   -0.4143    0.0000 C   0  0  0  0  0  0  0  0  0  0  0  0
    0.7143   -1.2393    0.0000 N   0  0  0  0  0  0  0  0  0  0  0  0
    0.0000   -1.6500    0.0000 C   0  0  0  0  0  0  0  0  0  0  0  0
    1.4286   -1.6500    0.0000 C   0  0  0  0  0  0  0  0  0  0  0  0
    2.1429   -1.2393    0.0000 C   0  0  0  0  0  0  0  0  0  0  0  0
    2.1429   -0.4143    0.0000 C   0  0  0  0  0  0  0  0  0  0  0  0
    2.8572   -1.6500    0.0000 C   0  0  0  0  0  0  0  0  0  0  0  0
    2.8572    0.0000    0.0000 C   0  0  0  0  0  0  0  0  0  0  0  0
    3.5714   -1.2393    0.0000 C   0  0  0  0  0  0  0  0  0  0  0  0
    3.5714   -0.4143    0.0000 C   0  0  0  0  0  0  0  0  0  0  0  0
  1  2  1  0  0  0  0
  2  3  1  0  0  0  0
  2  4  1  0  0  0  0
  4  5  1  0  0  0  0
  5  6  2  0  0  0  0
  5  7  1  0  0  0  0
  6  8  1  0  0  0  0
  9  7  2  0  0  0  0
  8 10  2  0  0  0  0
 10  9  1  0  0  0  0
M  END
>  <Name>
Benzenemethanamine, N,N-dimethyl-

>  <IGC50>
3.12

>  <CAS>
103-83-3

>  <SET>
ws

>  <Species>
Tetrahymena pyriformis

>  <Test duration>
48h

$$$$

  Mrv1808 07152009203D          

 11 11  0  0  0  0            999 V2000
    2.5539    0.0943   -2.0907 O   0  0  0  0  0  0  0  0  0  0  0  0
    1.9025   -1.0709   -1.5998 C   0  0  0  0  0  0  0  0  0  0  0  0
    1.8846   -1.0376   -0.1090 C   0  0  0  0  0  0  0  0  0  0  0  0
    0.8176   -0.4410    0.5626 C   0  0  0  0  0  0  0  0  0  0  0  0
    2.9348   -1.6038    0.6137 C   0  0  0  0  0  0  0  0  0  0  0  0
    0.8008   -0.4105    1.9570 C   0  0  0  0  0  0  0  0  0  0  0  0
    2.9180   -1.5734    2.0082 C   0  0  0  0  0  0  0  0  0  0  0  0
    1.8509   -0.9767    2.6799 C   0  0  0  0  0  0  0  0  0  0  0  0
    1.8331   -0.9466    4.0994 N   0  3  0  0  0  0  0  0  0  0  0  0
    0.8635   -0.4056    4.6841 O   0  5  0  0  0  0  0  0  0  0  0  0
    2.7873   -1.4620    4.7306 O   0  0  0  0  0  0  0  0  0  0  0  0
  1  2  1  0  0  0  0
  3  2  1  0  0  0  0
  3  4  2  0  0  0  0
  3  5  1  0  0  0  0
  4  6  1  0  0  0  0
  5  7  2  0  0  0  0
  8  6  2  0  0  0  0
  8  7  1  0  0  0  0
  9  8  1  0  0  0  0
 10  9  1  0  0  0  0
 11  9  2  0  0  0  0
M  CHG  2   9   1  10  -1
M  END
>  <Name>
Benzenemethanol, 4-nitro-

>  <IGC50>
3.12

>  <CAS>
619-73-8

>  <SET>
ws

>  <Species>
Tetrahymena pyriformis

>  <Test duration>
48h

$$$$

  Mrv1808 07152009203D          

 11 11  0  0  0  0            999 V2000
    6.0094    2.6898    2.2870 C   0  0  0  0  0  0  0  0  0  0  0  0
    5.3302    1.7866    1.2649 C   0  0  0  0  0  0  0  0  0  0  0  0
    7.5218    2.7033    2.1313 C   0  0  0  0  0  0  0  0  0  0  0  0
    3.8493    1.7771    1.4639 C   0  0  0  0  0  0  0  0  0  0  0  0
    7.9615    3.5690    0.9517 C   0  0  0  0  0  0  0  0  0  0  0  0
    3.0551    2.7652    0.8806 C   0  0  0  0  0  0  0  0  0  0  0  0
    3.2490    0.7836    2.2395 C   0  0  0  0  0  0  0  0  0  0  0  0
    9.3701    3.5452    0.9089 O   0  0  0  0  0  0  0  0  0  0  0  0
    1.6773    2.7587    1.0670 C   0  0  0  0  0  0  0  0  0  0  0  0
    1.8718    0.7810    2.4266 C   0  0  0  0  0  0  0  0  0  0  0  0
    1.0845    1.7668    1.8409 C   0  0  0  0  0  0  0  0  0  0  0  0
  1  2  1  0  0  0  0
  1  3  1  0  0  0  0
  2  4  1  0  0  0  0
  3  5  1  0  0  0  0
  6  4  2  0  0  0  0
  4  7  1  0  0  0  0
  5  8  1  0  0  0  0
  9  6  1  0  0  0  0
  7 10  2  0  0  0  0
 11  9  2  0  0  0  0
 10 11  1  0  0  0  0
M  END
>  <Name>
1-Butanol, 4-phenyl- (8CI)

>  <IGC50>
3.12

>  <CAS>
3360-41-6

>  <SET>
ws

>  <Species>
Tetrahymena pyriformis

>  <Test duration>
48h

$$$$

  Mrv1808 07152009202D          

  9  9  0  0  0  0            999 V2000
    0.0000   -1.4298    0.0000 C   0  0  0  0  0  0  0  0  0  0  0  0
    0.8264   -1.4298    0.0000 C   0  0  0  0  0  0  0  0  0  0  0  0
    1.2382   -0.7149    0.0000 C   0  0  0  0  0  0  0  0  0  0  0  0
    1.2382   -2.1446    0.0000 C   0  0  0  0  0  0  0  0  0  0  0  0
    0.8264    0.0000    0.0000 C   0  0  0  0  0  0  0  0  0  0  0  0
    2.0646   -0.7149    0.0000 C   0  0  0  0  0  0  0  0  0  0  0  0
    2.0646   -2.1446    0.0000 C   0  0  0  0  0  0  0  0  0  0  0  0
    0.8264   -2.8595    0.0000 O   0  0  0  0  0  0  0  0  0  0  0  0
    2.4763   -1.4298    0.0000 C   0  0  0  0  0  0  0  0  0  0  0  0
  1  2  1  0  0  0  0
  2  3  2  0  0  0  0
  2  4  1  0  0  0  0
  3  5  1  0  0  0  0
  3  6  1  0  0  0  0
  7  4  2  0  0  0  0
  4  8  1  0  0  0  0
  6  9  2  0  0  0  0
  9  7  1  0  0  0  0
M  END
>  <Name>
Phenol, 2,3-dimethyl-

>  <IGC50>
3.12

>  <CAS>
526-75-0

>  <SET>
ws

>  <Species>
Tetrahymena pyriformis

>  <Test duration>
48h

$$$$

  Mrv1808 07152009202D          

 11 11  0  0  0  0            999 V2000
    3.2588    1.4025    0.0000 C   0  0  0  0  0  0  0  0  0  0  0  0
    2.4338    1.4025    0.0000 C   0  0  0  0  0  0  0  0  0  0  0  0
    3.6714    2.1038    0.0000 C   0  0  0  0  0  0  0  0  0  0  0  0
    2.0625    2.1038    0.0000 C   0  0  0  0  0  0  0  0  0  0  0  0
    2.0625    0.7013    0.0000 N   0  0  0  0  0  0  0  0  0  0  0  0
    3.2588    2.8464    0.0000 C   0  0  0  0  0  0  0  0  0  0  0  0
    2.4338    2.8464    0.0000 C   0  0  0  0  0  0  0  0  0  0  0  0
    1.2375    0.7013    0.0000 C   0  0  0  0  0  0  0  0  0  0  0  0
    0.8250    1.4025    0.0000 O   0  0  0  0  0  0  0  0  0  0  0  0
    0.8250    0.0000    0.0000 C   0  0  0  0  0  0  0  0  0  0  0  0
    0.0000    0.0000    0.0000 C   0  0  0  0  0  0  0  0  0  0  0  0
  2  1  2  0  0  0  0
  1  3  1  0  0  0  0
  4  2  1  0  0  0  0
  2  5  1  0  0  0  0
  3  6  2  0  0  0  0
  7  4  2  0  0  0  0
  5  8  1  0  0  0  0
  6  7  1  0  0  0  0
  8  9  2  0  0  0  0
  8 10  1  0  0  0  0
 10 11  2  0  0  0  0
M  END
>  <Name>
Acrylanilide(6CI,7CI,8CI)

>  <IGC50>
3.116

>  <CAS>
2210-24-4

>  <SET>
ws

>  <Species>
Tetrahymena pyriformis

>  <Test duration>
48h

$$$$

  Mrv1808 07152009202D          

  6  5  0  0  0  0            999 V2000
    0.7127   -0.7148    0.0000 C   0  0  0  0  0  0  0  0  0  0  0  0
    0.3017    0.0000    0.0000 Br  0  0  0  0  0  0  0  0  0  0  0  0
    1.1256   -1.4274    0.0000 Br  0  0  0  0  0  0  0  0  0  0  0  0
    0.0000   -1.1256    0.0000 Br  0  0  0  0  0  0  0  0  0  0  0  0
    1.4274   -0.3017    0.0000 C   0  0  0  0  0  0  0  0  0  0  0  0
    2.1400   -0.7148    0.0000 O   0  0  0  0  0  0  0  0  0  0  0  0
  1  2  1  0  0  0  0
  1  3  1  0  0  0  0
  1  4  1  0  0  0  0
  1  5  1  0  0  0  0
  5  6  1  0  0  0  0
M  END
>  <Name>
Ethanol, 2,2,2-tribromo-

>  <IGC50>
3.113

>  <CAS>
75-80-9

>  <SET>
ws

>  <Species>
Tetrahymena pyriformis

>  <Test duration>
48h

$$$$

  Mrv1808 07152009202D          

 10 10  0  0  0  0            999 V2000
    0.4113   -0.7152    0.0000 C   0  0  0  0  0  0  0  0  0  0  0  0
    0.0000    0.0000    0.0000 O   0  0  0  0  0  0  0  0  0  0  0  0
    0.0000   -1.4266    0.0000 O   0  0  0  0  0  0  0  0  0  0  0  0
    1.2339   -0.7152    0.0000 C   0  0  0  0  0  0  0  0  0  0  0  0
    1.6452    0.0000    0.0000 C   0  0  0  0  0  0  0  0  0  0  0  0
    1.6452   -1.4266    0.0000 C   0  0  0  0  0  0  0  0  0  0  0  0
    2.4715    0.0000    0.0000 C   0  0  0  0  0  0  0  0  0  0  0  0
    2.4715   -1.4266    0.0000 C   0  0  0  0  0  0  0  0  0  0  0  0
    2.8829   -0.7152    0.0000 C   0  0  0  0  0  0  0  0  0  0  0  0
    3.7054   -0.7152    0.0000 Cl  0  0  0  0  0  0  0  0  0  0  0  0
  1  2  2  0  0  0  0
  1  3  1  0  0  0  0
  1  4  1  0  0  0  0
  4  5  2  0  0  0  0
  4  6  1  0  0  0  0
  5  7  1  0  0  0  0
  8  6  2  0  0  0  0
  7  9  2  0  0  0  0
  9  8  1  0  0  0  0
  9 10  1  0  0  0  0
M  END
>  <Name>
Benzoic acid, 4-chloro-

>  <IGC50>
3.11

>  <CAS>
74-11-3

>  <SET>
ws

>  <Species>
Tetrahymena pyriformis

>  <Test duration>
48h

$$$$

  Mrv1808 07152009202D          

  9  9  0  0  0  0            999 V2000
    1.2375   -0.7154    0.0000 C   0  0  0  0  0  0  0  0  0  0  0  0
    1.6471    0.0000    0.0000 C   0  0  0  0  0  0  0  0  0  0  0  0
    1.6471   -1.4279    0.0000 C   0  0  0  0  0  0  0  0  0  0  0  0
    0.4125   -0.7154    0.0000 C   0  0  0  0  0  0  0  0  0  0  0  0
    2.4721    0.0000    0.0000 C   0  0  0  0  0  0  0  0  0  0  0  0
    2.4721   -1.4279    0.0000 C   0  0  0  0  0  0  0  0  0  0  0  0
    0.0000   -1.4279    0.0000 Cl  0  0  0  0  0  0  0  0  0  0  0  0
    0.0000    0.0000    0.0000 Cl  0  0  0  0  0  0  0  0  0  0  0  0
    2.8846   -0.7154    0.0000 C   0  0  0  0  0  0  0  0  0  0  0  0
  1  2  2  0  0  0  0
  1  3  1  0  0  0  0
  1  4  1  0  0  0  0
  2  5  1  0  0  0  0
  6  3  2  0  0  0  0
  4  7  1  0  0  0  0
  4  8  1  0  0  0  0
  5  9  2  0  0  0  0
  9  6  1  0  0  0  0
M  END
>  <Name>
Toluene, alpha,alpha-dichloro- (8CI)

>  <IGC50>
3.11

>  <CAS>
98-87-3

>  <SET>
ws

>  <Species>
Tetrahymena pyriformis

>  <Test duration>
48h

$$$$

  Mrv1808 07152009202D          

 11 11  0  0  0  0            999 V2000
    1.5628   -0.6452    0.0000 C   0  0  0  0  0  0  0  0  0  0  0  0
    0.8750   -0.0970    0.0000 C   0  0  0  0  0  0  0  0  0  0  0  0
    2.2414   -0.4218    0.0000 O   0  0  0  0  0  0  0  0  0  0  0  0
    0.1155   -0.4167    0.0000 C   0  0  0  0  0  0  0  0  0  0  0  0
    0.9779    0.7215    0.0000 C   0  0  0  0  0  0  0  0  0  0  0  0
   -0.5426    0.0831    0.0000 C   0  0  0  0  0  0  0  0  0  0  0  0
    0.3224    1.2174    0.0000 C   0  0  0  0  0  0  0  0  0  0  0  0
   -0.4363    0.9043    0.0000 C   0  0  0  0  0  0  0  0  0  0  0  0
   -1.3594   -0.2591    0.0000 N   0  3  0  0  0  0  0  0  0  0  0  0
   -1.9259    0.1815    0.0000 O   0  0  0  0  0  0  0  0  0  0  0  0
   -1.4409   -0.9724    0.0000 O   0  5  0  0  0  0  0  0  0  0  0  0
  1  2  1  0  0  0  0
  1  3  2  0  0  0  0
  2  4  1  0  0  0  0
  2  5  2  0  0  0  0
  4  6  2  0  0  0  0
  7  5  1  0  0  0  0
  6  8  1  0  0  0  0
  6  9  1  0  0  0  0
  8  7  2  0  0  0  0
  9 10  2  0  0  0  0
  9 11  1  0  0  0  0
M  CHG  2   9   1  11  -1
M  END
>  <Name>
Benzaldehyde, 3-nitro-

>  <IGC50>
3.11

>  <CAS>
99-61-6

>  <SET>
ws

>  <Species>
Tetrahymena pyriformis

>  <Test duration>
48h

$$$$

  Mrv1808 07152009202D          

  9  9  0  0  0  0            999 V2000
    0.0000   -1.4298    0.0000 C   0  0  0  0  0  0  0  0  0  0  0  0
    0.8264   -1.4298    0.0000 C   0  0  0  0  0  0  0  0  0  0  0  0
    1.2382   -0.7149    0.0000 C   0  0  0  0  0  0  0  0  0  0  0  0
    1.2382   -2.1446    0.0000 C   0  0  0  0  0  0  0  0  0  0  0  0
    2.0646   -0.7149    0.0000 C   0  0  0  0  0  0  0  0  0  0  0  0
    2.0646   -2.1446    0.0000 C   0  0  0  0  0  0  0  0  0  0  0  0
    2.4763    0.0000    0.0000 C   0  0  0  0  0  0  0  0  0  0  0  0
    2.4763   -1.4298    0.0000 C   0  0  0  0  0  0  0  0  0  0  0  0
    2.4763   -2.8595    0.0000 O   0  0  0  0  0  0  0  0  0  0  0  0
  1  2  1  0  0  0  0
  2  3  2  0  0  0  0
  2  4  1  0  0  0  0
  3  5  1  0  0  0  0
  6  4  2  0  0  0  0
  5  7  1  0  0  0  0
  5  8  2  0  0  0  0
  8  6  1  0  0  0  0
  6  9  1  0  0  0  0
M  END
>  <Name>
Phenol, 3,5-dimethyl-

>  <IGC50>
3.11

>  <CAS>
108-68-9

>  <SET>
ws

>  <Species>
Tetrahymena pyriformis

>  <Test duration>
48h

$$$$

  Mrv1808 07152009202D          

  7  6  0  0  0  0            999 V2000
    0.0000    1.5059    0.0000 C   0  0  0  0  0  0  0  0  0  0  0  0
    0.4183    0.7948    0.0000 C   0  0  0  0  0  0  0  0  0  0  0  0
    1.2549    0.7948    0.0000 S   0  0  0  0  0  0  0  0  0  0  0  0
    2.0916    0.7948    0.0000 C   0  0  0  0  0  0  0  0  0  0  0  0
    1.2549    0.0000    0.0000 O   0  0  0  0  0  0  0  0  0  0  0  0
    1.2549    1.5896    0.0000 O   0  0  0  0  0  0  0  0  0  0  0  0
    2.5098    0.0837    0.0000 C   0  0  0  0  0  0  0  0  0  0  0  0
  1  2  2  0  0  0  0
  2  3  1  0  0  0  0
  3  4  1  0  0  0  0
  3  5  2  0  0  0  0
  3  6  2  0  0  0  0
  4  7  1  0  0  0  0
M  END
>  <Name>
(Ethylsulphonyl)ethylene

>  <IGC50>
3.11

>  <CAS>
1889-59-4

>  <SET>
ws

>  <Species>
Tetrahymena pyriformis

>  <Test duration>
48h

$$$$

  Mrv1808 07152009203D          

 10 10  0  0  0  0            999 V2000
    4.5810    0.9264    1.0290 C   0  0  0  0  0  0  0  0  0  0  0  0
    4.2643    0.0000    0.3175 O   0  0  0  0  0  0  0  0  0  0  0  0
    3.7276    2.1170    1.2704 C   0  0  0  0  0  0  0  0  0  0  0  0
    2.4778    2.2234    0.6639 C   0  0  0  0  0  0  0  0  0  0  0  0
    4.1935    3.1272    2.1162 C   0  0  0  0  0  0  0  0  0  0  0  0
    1.6909    3.3546    0.9069 C   0  0  0  0  0  0  0  0  0  0  0  0
    3.4228    4.2533    2.3619 C   0  0  0  0  0  0  0  0  0  0  0  0
    0.4843    3.3910    0.2549 O   0  0  0  0  0  0  0  0  0  0  0  0
    2.1656    4.3777    1.7563 C   0  0  0  0  0  0  0  0  0  0  0  0
    1.4667    5.5178    2.0561 O   0  0  0  0  0  0  0  0  0  0  0  0
  1  2  2  0  0  0  0
  1  3  1  0  0  0  0
  3  4  2  0  0  0  0
  5  3  1  0  0  0  0
  4  6  1  0  0  0  0
  7  5  2  0  0  0  0
  6  8  1  0  0  0  0
  6  9  2  0  0  0  0
  9  7  1  0  0  0  0
  9 10  1  0  0  0  0
M  END
>  <Name>
Benzaldehyde, 3,4-dihydroxy- (9CI)

>  <IGC50>
3.107

>  <CAS>
139-85-5

>  <SET>
ws

>  <Species>
Tetrahymena pyriformis

>  <Test duration>
48h

$$$$

  Mrv1808 07152009202D          

  8  7  0  0  0  0            999 V2000
    5.0049    0.0000    0.0000 C   0  0  0  0  0  0  0  0  0  0  0  0
    4.2892   -0.4104    0.0000 C   0  0  0  0  0  0  0  0  0  0  0  0
    3.5735    0.0000    0.0000 C   0  0  0  0  0  0  0  0  0  0  0  0
    2.8578   -0.4104    0.0000 C   0  0  0  0  0  0  0  0  0  0  0  0
    2.1471    0.0000    0.0000 C   0  0  0  0  0  0  0  0  0  0  0  0
    1.4314   -0.4104    0.0000 C   0  0  0  0  0  0  0  0  0  0  0  0
    0.7157    0.0000    0.0000 C   0  0  0  0  0  0  0  0  0  0  0  0
    0.0000   -0.4104    0.0000 O   0  0  0  0  0  0  0  0  0  0  0  0
  1  2  1  0  0  0  0
  2  3  1  0  0  0  0
  3  4  1  0  0  0  0
  4  5  1  0  0  0  0
  5  6  1  0  0  0  0
  6  7  1  0  0  0  0
  7  8  1  0  0  0  0
M  END
>  <Name>
Heptyl alcohol

>  <IGC50>
3.105

>  <CAS>
111-70-6

>  <SET>
ws

>  <Species>
Tetrahymena pyriformis

>  <Test duration>
48h

$$$$

  Mrv1808 07152009203D          

 10  9  0  0  0  0            999 V2000
    4.3356    1.0933    1.6694 C   0  0  0  0  0  0  0  0  0  0  0  0
    3.0716    1.6644    1.0730 C   0  0  0  0  0  0  0  0  0  0  0  0
    5.5919    1.7353    1.1052 C   0  0  0  0  0  0  0  0  0  0  0  0
    1.9459    1.1973    1.7007 O   0  0  0  0  0  0  0  0  0  0  0  0
    2.9442    2.4415    0.1482 O   0  0  0  0  0  0  0  0  0  0  0  0
    6.8373    1.0868    1.6899 C   0  0  0  0  0  0  0  0  0  0  0  0
    0.6842    1.6355    1.2460 C   0  0  0  0  0  0  0  0  0  0  0  0
    8.0996    1.7605    1.1771 C   0  0  0  0  0  0  0  0  0  0  0  0
    9.3478    1.0822    1.7192 C   0  0  0  0  0  0  0  0  0  0  0  0
   10.6045    1.7861    1.2590 C   0  0  0  0  0  0  0  0  0  0  0  0
  1  2  1  0  0  0  0
  1  3  1  0  0  0  0
  2  4  1  0  0  0  0
  2  5  2  0  0  0  0
  3  6  1  0  0  0  0
  4  7  1  0  0  0  0
  6  8  1  0  0  0  0
  8  9  1  0  0  0  0
  9 10  1  0  0  0  0
M  END
>  <Name>
Heptanoic acid, methyl ester

>  <IGC50>
3.104

>  <CAS>
106-73-0

>  <SET>
ws

>  <Species>
Tetrahymena pyriformis

>  <Test duration>
48h

$$$$

  Mrv1808 07152009202D          

 10 10  0  0  0  0            999 V2000
    3.7054   -0.7152    0.0000 F   0  0  0  0  0  0  0  0  0  0  0  0
    2.8829   -0.7152    0.0000 C   0  0  0  0  0  0  0  0  0  0  0  0
    2.4715   -1.4266    0.0000 C   0  0  0  0  0  0  0  0  0  0  0  0
    2.4715    0.0000    0.0000 C   0  0  0  0  0  0  0  0  0  0  0  0
    1.6452   -1.4266    0.0000 C   0  0  0  0  0  0  0  0  0  0  0  0
    1.6452    0.0000    0.0000 C   0  0  0  0  0  0  0  0  0  0  0  0
    1.2339   -0.7152    0.0000 C   0  0  0  0  0  0  0  0  0  0  0  0
    0.4113   -0.7152    0.0000 N   0  3  0  0  0  0  0  0  0  0  0  0
    0.0000   -1.4266    0.0000 O   0  0  0  0  0  0  0  0  0  0  0  0
    0.0000    0.0000    0.0000 O   0  5  0  0  0  0  0  0  0  0  0  0
  1  2  1  0  0  0  0
  2  3  2  0  0  0  0
  2  4  1  0  0  0  0
  3  5  1  0  0  0  0
  6  4  2  0  0  0  0
  5  7  2  0  0  0  0
  7  6  1  0  0  0  0
  7  8  1  0  0  0  0
  8  9  2  0  0  0  0
  8 10  1  0  0  0  0
M  CHG  2   8   1  10  -1
M  END
>  <Name>
Benzene, 1-fluoro-4-nitro-

>  <IGC50>
3.1

>  <CAS>
350-46-9

>  <SET>
ws

>  <Species>
Tetrahymena pyriformis

>  <Test duration>
48h

$$$$

  Mrv1808 07152009202D          

  9  9  0  0  0  0            999 V2000
    2.4262    0.7112    0.0000 C   0  0  0  0  0  0  0  0  0  0  0  0
    1.6314    0.7112    0.0000 C   0  0  0  0  0  0  0  0  0  0  0  0
    2.8445    1.4222    0.0000 C   0  0  0  0  0  0  0  0  0  0  0  0
    1.2131    1.4222    0.0000 C   0  0  0  0  0  0  0  0  0  0  0  0
    1.2131    0.0000    0.0000 Br  0  0  0  0  0  0  0  0  0  0  0  0
    2.4262    2.1334    0.0000 C   0  0  0  0  0  0  0  0  0  0  0  0
    1.6314    2.1334    0.0000 C   0  0  0  0  0  0  0  0  0  0  0  0
    0.3765    1.4222    0.0000 C   0  0  0  0  0  0  0  0  0  0  0  0
    0.0000    0.7112    0.0000 O   0  0  0  0  0  0  0  0  0  0  0  0
  2  1  2  0  0  0  0
  1  3  1  0  0  0  0
  4  2  1  0  0  0  0
  2  5  1  0  0  0  0
  3  6  2  0  0  0  0
  7  4  2  0  0  0  0
  4  8  1  0  0  0  0
  6  7  1  0  0  0  0
  8  9  1  0  0  0  0
M  END
>  <Name>
2-Bromobenzyl alcohol

>  <IGC50>
3.1

>  <CAS>
18982-54-2

>  <SET>
ws

>  <Species>
Tetrahymena pyriformis

>  <Test duration>
48h

$$$$

  Mrv1808 07152009202D          

 10 10  0  0  0  0            999 V2000
    2.8876    0.7425    0.0000 C   0  0  0  0  0  0  0  0  0  0  0  0
    2.4751    0.0000    0.0000 C   0  0  0  0  0  0  0  0  0  0  0  0
    2.4751    1.4438    0.0000 C   0  0  0  0  0  0  0  0  0  0  0  0
    3.7126    0.7425    0.0000 C   0  0  0  0  0  0  0  0  0  0  0  0
    1.6501    0.0000    0.0000 C   0  0  0  0  0  0  0  0  0  0  0  0
    1.6501    1.4438    0.0000 C   0  0  0  0  0  0  0  0  0  0  0  0
    4.5377    0.7425    0.0000 N   0  0  0  0  0  0  0  0  0  0  0  0
    1.2375    0.7425    0.0000 C   0  0  0  0  0  0  0  0  0  0  0  0
    0.4125    0.7425    0.0000 O   0  0  0  0  0  0  0  0  0  0  0  0
    0.0000    0.0000    0.0000 C   0  0  0  0  0  0  0  0  0  0  0  0
  1  2  2  0  0  0  0
  3  1  1  0  0  0  0
  1  4  1  0  0  0  0
  2  5  1  0  0  0  0
  6  3  2  0  0  0  0
  4  7  3  0  0  0  0
  5  8  2  0  0  0  0
  8  6  1  0  0  0  0
  8  9  1  0  0  0  0
  9 10  1  0  0  0  0
M  END
>  <Name>
p-Anisonitrile (8CI)

>  <IGC50>
3.1

>  <CAS>
874-90-8

>  <SET>
ws

>  <Species>
Tetrahymena pyriformis

>  <Test duration>
48h

$$$$

  Mrv1808 07152009202D          

 11 11  0  0  0  0            999 V2000
    1.4437    0.4125    0.0000 C   0  0  0  0  0  0  0  0  0  0  0  0
    1.4437    1.2375    0.0000 C   0  0  0  0  0  0  0  0  0  0  0  0
    0.7425    0.0000    0.0000 C   0  0  0  0  0  0  0  0  0  0  0  0
    0.7425    1.6087    0.0000 C   0  0  0  0  0  0  0  0  0  0  0  0
    0.0000    0.4125    0.0000 C   0  0  0  0  0  0  0  0  0  0  0  0
    0.0000    1.2375    0.0000 C   0  0  0  0  0  0  0  0  0  0  0  0
    0.7425    2.4337    0.0000 C   0  0  0  0  0  0  0  0  0  0  0  0
    1.4437    2.8050    0.0000 N   0  0  0  0  0  0  0  0  0  0  0  0
    0.0412    2.8462    0.0000 O   0  0  0  0  0  0  0  0  0  0  0  0
    2.1450    2.3925    0.0000 C   0  0  0  0  0  0  0  0  0  0  0  0
    2.8462    1.9387    0.0000 S   0  0  0  0  0  0  0  0  0  0  0  0
  2  1  2  0  0  0  0
  1  3  1  0  0  0  0
  4  2  1  0  0  0  0
  3  5  2  0  0  0  0
  6  4  2  0  0  0  0
  4  7  1  0  0  0  0
  5  6  1  0  0  0  0
  7  8  1  0  0  0  0
  7  9  2  0  0  0  0
  8 10  2  0  0  0  0
 10 11  2  0  0  0  0
M  END
>  <Name>
Benzoyl isothiocyanate

>  <IGC50>
3.097

>  <CAS>
532-55-8

>  <SET>
ws

>  <Species>
Tetrahymena pyriformis

>  <Test duration>
48h

$$$$

  Mrv1808 07152009202D          

  6  5  0  0  0  0            999 V2000
    0.7174   -0.8293    0.0000 C   0  0  0  0  0  0  0  0  0  0  0  0
    1.4347   -1.2367    0.0000 C   0  0  0  0  0  0  0  0  0  0  0  0
    0.0000   -1.2367    0.0000 O   0  0  0  0  0  0  0  0  0  0  0  0
    2.1520   -0.8293    0.0000 C   0  0  0  0  0  0  0  0  0  0  0  0
    2.8694   -1.2367    0.0000 C   0  0  0  0  0  0  0  0  0  0  0  0
    2.1520    0.0000    0.0000 C   0  0  0  0  0  0  0  0  0  0  0  0
  1  2  1  0  0  0  0
  1  3  2  0  0  0  0
  2  4  2  0  0  0  0
  4  5  1  0  0  0  0
  4  6  1  0  0  0  0
M  END
>  <Name>
Crotonaldehyde, 3-methyl- (8CI)

>  <IGC50>
3.09

>  <CAS>
107-86-8

>  <SET>
ws

>  <Species>
Tetrahymena pyriformis

>  <Test duration>
48h

$$$$

  Mrv1808 07152009202D          

 10 10  0  0  0  0            999 V2000
    0.0418    1.4222    0.0000 N   0  0  0  0  0  0  0  0  0  0  0  0
    0.4183    0.7111    0.0000 C   0  0  0  0  0  0  0  0  0  0  0  0
    0.0000    0.0000    0.0000 O   0  0  0  0  0  0  0  0  0  0  0  0
    1.2967    0.7111    0.0000 C   0  0  0  0  0  0  0  0  0  0  0  0
    1.7150    1.4222    0.0000 C   0  0  0  0  0  0  0  0  0  0  0  0
    1.7150    0.0000    0.0000 C   0  0  0  0  0  0  0  0  0  0  0  0
    2.5516    1.4222    0.0000 C   0  0  0  0  0  0  0  0  0  0  0  0
    2.5516    0.0000    0.0000 C   0  0  0  0  0  0  0  0  0  0  0  0
    2.9699    0.7111    0.0000 C   0  0  0  0  0  0  0  0  0  0  0  0
    3.8065    0.7111    0.0000 Cl  0  0  0  0  0  0  0  0  0  0  0  0
  1  2  1  0  0  0  0
  2  3  2  0  0  0  0
  2  4  1  0  0  0  0
  5  4  2  0  0  0  0
  4  6  1  0  0  0  0
  7  5  1  0  0  0  0
  6  8  2  0  0  0  0
  9  7  2  0  0  0  0
  8  9  1  0  0  0  0
  9 10  1  0  0  0  0
M  END
>  <Name>
Benzamide, p-chloro- (6CI,7CI,8CI)

>  <IGC50>
3.09

>  <CAS>
619-56-7

>  <SET>
ws

>  <Species>
Tetrahymena pyriformis

>  <Test duration>
48h

$$$$

  Mrv1808 07152009202D          

  9  9  0  0  0  0            999 V2000
    0.7111    1.6732    0.0000 C   0  0  0  0  0  0  0  0  0  0  0  0
    1.4222    1.2548    0.0000 C   0  0  0  0  0  0  0  0  0  0  0  0
    0.0000    1.2548    0.0000 C   0  0  0  0  0  0  0  0  0  0  0  0
    1.4222    0.4183    0.0000 C   0  0  0  0  0  0  0  0  0  0  0  0
    2.1333    1.6732    0.0000 C   0  0  0  0  0  0  0  0  0  0  0  0
    0.0000    0.4183    0.0000 C   0  0  0  0  0  0  0  0  0  0  0  0
    0.6692    0.0000    0.0000 C   0  0  0  0  0  0  0  0  0  0  0  0
    2.8443    1.2548    0.0000 N   0  0  0  0  0  0  0  0  0  0  0  0
    2.1333    2.4679    0.0000 S   0  0  0  0  0  0  0  0  0  0  0  0
  1  2  2  0  0  0  0
  3  1  1  0  0  0  0
  2  4  1  0  0  0  0
  2  5  1  0  0  0  0
  6  3  2  0  0  0  0
  4  7  2  0  0  0  0
  5  8  1  0  0  0  0
  5  9  2  0  0  0  0
  7  6  1  0  0  0  0
M  END
>  <Name>
Benzenecarbothioamide

>  <IGC50>
3.09

>  <CAS>
2227-79-4

>  <SET>
ws

>  <Species>
Tetrahymena pyriformis

>  <Test duration>
48h

$$$$

  Mrv1808 07152009202D          

  6  6  0  0  0  0            999 V2000
    2.2324    0.0000    0.0000 Br  0  0  0  0  0  0  0  0  0  0  0  0
    1.5044    0.4368    0.0000 C   0  0  0  0  0  0  0  0  0  0  0  0
    0.7279    0.0000    0.0000 S   0  0  0  0  0  0  0  0  0  0  0  0
    1.5044    1.2618    0.0000 C   0  0  0  0  0  0  0  0  0  0  0  0
    0.0000    0.4368    0.0000 C   0  0  0  0  0  0  0  0  0  0  0  0
    0.0000    1.2618    0.0000 C   0  0  0  0  0  0  0  0  0  0  0  0
  1  2  1  0  0  0  0
  2  3  1  0  0  0  0
  4  2  2  0  0  0  0
  3  5  1  0  0  0  0
  6  4  1  0  0  0  0
  5  6  2  0  0  0  0
M  END
>  <Name>
2-bromothiophene

>  <IGC50>
3.09

>  <CAS>
1003-09-4

>  <SET>
ws

>  <Species>
Tetrahymena pyriformis

>  <Test duration>
48h

$$$$

  Mrv1808 07152009202D          

 10  9  0  0  0  0            999 V2000
    0.0000   -1.2411    0.0000 C   0  0  0  0  0  0  0  0  0  0  0  0
    0.7149   -0.8293    0.0000 C   0  0  0  0  0  0  0  0  0  0  0  0
    1.4297   -1.2411    0.0000 C   0  0  0  0  0  0  0  0  0  0  0  0
    2.1447   -0.8293    0.0000 C   0  0  0  0  0  0  0  0  0  0  0  0
    2.8595   -1.2411    0.0000 C   0  0  0  0  0  0  0  0  0  0  0  0
    3.5744   -0.8293    0.0000 C   0  0  0  0  0  0  0  0  0  0  0  0
    4.2893   -1.2411    0.0000 C   0  0  0  0  0  0  0  0  0  0  0  0
    5.0042   -0.8293    0.0000 C   0  0  0  0  0  0  0  0  0  0  0  0
    5.7191   -1.2411    0.0000 O   0  0  0  0  0  0  0  0  0  0  0  0
    5.0042    0.0000    0.0000 O   0  0  0  0  0  0  0  0  0  0  0  0
  1  2  1  0  0  0  0
  2  3  1  0  0  0  0
  3  4  1  0  0  0  0
  4  5  1  0  0  0  0
  5  6  1  0  0  0  0
  6  7  1  0  0  0  0
  7  8  1  0  0  0  0
  8  9  1  0  0  0  0
  8 10  2  0  0  0  0
M  END
>  <Name>
Octanoic acid

>  <IGC50>
3.081

>  <CAS>
124-07-2

>  <SET>
ws

>  <Species>
Tetrahymena pyriformis

>  <Test duration>
48h

$$$$

  Mrv1808 07152009202D          

  9  9  0  0  0  0            999 V2000
    0.0000    0.0000    0.0000 O   0  0  0  0  0  0  0  0  0  0  0  0
    0.4125    0.7013    0.0000 C   0  0  0  0  0  0  0  0  0  0  0  0
    1.2787    0.7013    0.0000 C   0  0  0  0  0  0  0  0  0  0  0  0
    1.6912    1.4437    0.0000 C   0  0  0  0  0  0  0  0  0  0  0  0
    1.6912    0.0000    0.0000 C   0  0  0  0  0  0  0  0  0  0  0  0
    2.5162    1.4437    0.0000 C   0  0  0  0  0  0  0  0  0  0  0  0
    2.5162    0.0000    0.0000 C   0  0  0  0  0  0  0  0  0  0  0  0
    2.9286    2.1450    0.0000 C   0  0  0  0  0  0  0  0  0  0  0  0
    2.9286    0.7013    0.0000 C   0  0  0  0  0  0  0  0  0  0  0  0
  1  2  2  0  0  0  0
  2  3  1  0  0  0  0
  4  3  2  0  0  0  0
  3  5  1  0  0  0  0
  6  4  1  0  0  0  0
  5  7  2  0  0  0  0
  6  8  1  0  0  0  0
  9  6  2  0  0  0  0
  7  9  1  0  0  0  0
M  END
>  <Name>
Benzaldehyde, 3-methyl-

>  <IGC50>
3.081

>  <CAS>
620-23-5

>  <SET>
ws

>  <Species>
Tetrahymena pyriformis

>  <Test duration>
48h

$$$$

  Mrv1808 07152009202D          

 11 11  0  0  0  0            999 V2000
    3.2941   -1.4266    0.0000 C   0  0  0  0  0  0  0  0  0  0  0  0
    2.4715   -1.4266    0.0000 C   0  0  0  0  0  0  0  0  0  0  0  0
    3.7054   -2.1380    0.0000 O   0  0  0  0  0  0  0  0  0  0  0  0
    3.7054   -0.7114    0.0000 O   0  0  0  0  0  0  0  0  0  0  0  0
    2.0602   -2.1380    0.0000 C   0  0  0  0  0  0  0  0  0  0  0  0
    2.0602   -0.7114    0.0000 C   0  0  0  0  0  0  0  0  0  0  0  0
    3.2941    0.0000    0.0000 C   0  0  0  0  0  0  0  0  0  0  0  0
    1.2339   -2.1380    0.0000 C   0  0  0  0  0  0  0  0  0  0  0  0
    1.2339   -0.7114    0.0000 C   0  0  0  0  0  0  0  0  0  0  0  0
    0.8226   -1.4266    0.0000 C   0  0  0  0  0  0  0  0  0  0  0  0
    0.0000   -1.4266    0.0000 O   0  0  0  0  0  0  0  0  0  0  0  0
  1  2  1  0  0  0  0
  1  3  2  0  0  0  0
  1  4  1  0  0  0  0
  2  5  2  0  0  0  0
  2  6  1  0  0  0  0
  4  7  1  0  0  0  0
  5  8  1  0  0  0  0
  9  6  2  0  0  0  0
  8 10  2  0  0  0  0
 10  9  1  0  0  0  0
 10 11  1  0  0  0  0
M  END
>  <Name>
Benzoic acid, 4-hydroxy-, methyl ester

>  <IGC50>
3.08

>  <CAS>
99-76-3

>  <SET>
ws

>  <Species>
Tetrahymena pyriformis

>  <Test duration>
48h

$$$$

  Mrv1808 07152009203D          

  9  9  0  0  0  0            999 V2000
    0.0000    3.0344    1.1748 O   0  0  0  0  0  0  0  0  0  0  0  0
    0.6767    2.0721    0.8919 C   0  0  0  0  0  0  0  0  0  0  0  0
    2.1520    2.1205    0.7178 C   0  0  0  0  0  0  0  0  0  0  0  0
    2.8557    3.3133    0.8556 C   0  0  0  0  0  0  0  0  0  0  0  0
    2.8290    0.9364    0.4101 C   0  0  0  0  0  0  0  0  0  0  0  0
    4.2481    3.3044    0.6809 C   0  0  0  0  0  0  0  0  0  0  0  0
    4.2069    0.9391    0.2403 C   0  0  0  0  0  0  0  0  0  0  0  0
    4.8772    4.5104    0.8294 O   0  0  0  0  0  0  0  0  0  0  0  0
    4.9290    2.1202    0.3735 C   0  0  0  0  0  0  0  0  0  0  0  0
  1  2  2  0  0  0  0
  2  3  1  0  0  0  0
  3  4  2  0  0  0  0
  5  3  1  0  0  0  0
  4  6  1  0  0  0  0
  7  5  2  0  0  0  0
  6  8  1  0  0  0  0
  6  9  2  0  0  0  0
  9  7  1  0  0  0  0
M  END
>  <Name>
Benzaldehyde, 3-hydroxy-

>  <IGC50>
3.08

>  <CAS>
100-83-4

>  <SET>
ws

>  <Species>
Tetrahymena pyriformis

>  <Test duration>
48h

$$$$

  Mrv1808 07152009202D          

 13 14  0  0  0  0            999 V2000
    1.4279    0.0000    0.0000 O   0  0  0  0  0  0  0  0  0  0  0  0
    2.1403   -0.4125    0.0000 N   0  3  0  0  0  0  0  0  0  0  0  0
    2.1403   -1.2375    0.0000 C   0  0  0  0  0  0  0  0  0  0  0  0
    2.8558    0.0000    0.0000 O   0  5  0  0  0  0  0  0  0  0  0  0
    2.8558   -1.6471    0.0000 C   0  0  0  0  0  0  0  0  0  0  0  0
    1.4279   -1.6471    0.0000 C   0  0  0  0  0  0  0  0  0  0  0  0
    2.8558   -2.4721    0.0000 C   0  0  0  0  0  0  0  0  0  0  0  0
    1.4279   -2.4721    0.0000 C   0  0  0  0  0  0  0  0  0  0  0  0
    0.7125   -1.2375    0.0000 N   0  0  0  0  0  0  0  0  0  0  0  0
    2.1403   -2.8846    0.0000 C   0  0  0  0  0  0  0  0  0  0  0  0
    0.7125   -2.8846    0.0000 C   0  0  0  0  0  0  0  0  0  0  0  0
    0.0000   -1.6471    0.0000 C   0  0  0  0  0  0  0  0  0  0  0  0
    0.0000   -2.4721    0.0000 C   0  0  0  0  0  0  0  0  0  0  0  0
  1  2  2  0  0  0  0
  2  3  1  0  0  0  0
  2  4  1  0  0  0  0
  3  5  2  0  0  0  0
  3  6  1  0  0  0  0
  5  7  1  0  0  0  0
  8  6  1  0  0  0  0
  9  6  2  0  0  0  0
  7 10  2  0  0  0  0
 10  8  1  0  0  0  0
  8 11  2  0  0  0  0
 12  9  1  0  0  0  0
 11 13  1  0  0  0  0
 13 12  2  0  0  0  0
M  CHG  2   2   1   4  -1
M  END
>  <Name>
Quinoline, 8-nitro-

>  <IGC50>
3.08

>  <CAS>
607-35-2

>  <SET>
ws

>  <Species>
Tetrahymena pyriformis

>  <Test duration>
48h

$$$$

  Mrv1808 07152009203D          

 11 11  0  0  0  0            999 V2000
   -0.8037    0.6704   -0.0002 C   0  0  0  0  0  0  0  0  0  0  0  0
    0.6061    0.1976   -0.0001 C   0  0  0  0  0  0  0  0  0  0  0  0
   -1.1877    1.8238   -0.0005 O   0  0  0  0  0  0  0  0  0  0  0  0
   -1.7293   -0.3455    0.0001 O   0  0  0  0  0  0  0  0  0  0  0  0
    1.6249    1.1561    0.0002 C   0  0  0  0  0  0  0  0  0  0  0  0
    0.9354   -1.1607   -0.0003 C   0  0  0  0  0  0  0  0  0  0  0  0
   -3.0823   -0.0432    0.0005 C   0  0  0  0  0  0  0  0  0  0  0  0
    2.9564    0.7574    0.0003 C   0  0  0  0  0  0  0  0  0  0  0  0
    2.2701   -1.5506   -0.0002 C   0  0  0  0  0  0  0  0  0  0  0  0
   -3.9151   -1.0843    0.0001 C   0  0  0  0  0  0  0  0  0  0  0  0
    3.2807   -0.5951    0.0001 C   0  0  0  0  0  0  0  0  0  0  0  0
  1  2  1  0  0  0  0
  1  3  2  0  0  0  0
  1  4  1  0  0  0  0
  2  5  1  0  0  0  0
  2  6  2  0  0  0  0
  4  7  1  0  0  0  0
  5  8  2  0  0  0  0
  9  6  1  0  0  0  0
  7 10  2  0  0  0  0
  8 11  1  0  0  0  0
 11  9  2  0  0  0  0
M  END
>  <Name>
Benzoic acid, ethenyl ester (9CI)

>  <IGC50>
3.08

>  <CAS>
769-78-8

>  <SET>
ws

>  <Species>
Tetrahymena pyriformis

>  <Test duration>
48h

$$$$

  Mrv1808 07152009202D          

 10 10  0  0  0  0            999 V2000
    0.8250    0.0000    0.0000 C   0  0  0  0  0  0  0  0  0  0  0  0
    1.2375    0.7013    0.0000 C   0  0  0  0  0  0  0  0  0  0  0  0
    0.0000    0.0000    0.0000 C   0  0  0  0  0  0  0  0  0  0  0  0
    2.0626    0.7013    0.0000 C   0  0  0  0  0  0  0  0  0  0  0  0
    2.4751    1.4438    0.0000 C   0  0  0  0  0  0  0  0  0  0  0  0
    2.4751    0.0000    0.0000 C   0  0  0  0  0  0  0  0  0  0  0  0
    2.0626    2.1450    0.0000 N   0  0  0  0  0  0  0  0  0  0  0  0
    3.3001    1.4438    0.0000 C   0  0  0  0  0  0  0  0  0  0  0  0
    3.3001    0.0000    0.0000 C   0  0  0  0  0  0  0  0  0  0  0  0
    3.7126    0.7013    0.0000 C   0  0  0  0  0  0  0  0  0  0  0  0
  1  2  1  0  0  0  0
  1  3  1  0  0  0  0
  2  4  1  0  0  0  0
  5  4  2  0  0  0  0
  4  6  1  0  0  0  0
  5  7  1  0  0  0  0
  8  5  1  0  0  0  0
  6  9  2  0  0  0  0
 10  8  2  0  0  0  0
  9 10  1  0  0  0  0
M  END
>  <Name>
Benzenamine, 2-propyl- (9CI)

>  <IGC50>
3.08

>  <CAS>
1821-39-2

>  <SET>
ws

>  <Species>
Tetrahymena pyriformis

>  <Test duration>
48h

$$$$

  Mrv1808 07152009203D          

 10  9  0  0  0  0            999 V2000
    2.2838    0.6569   -0.2797 O   0  0  0  0  0  0  0  0  0  0  0  0
    1.2423   -0.2316   -0.1654 C   0  0  0  0  0  0  0  0  0  0  0  0
    3.5328    0.0682   -0.2418 C   0  0  0  0  0  0  0  0  0  0  0  0
    1.3230   -1.4465   -0.0384 O   0  0  0  0  0  0  0  0  0  0  0  0
   -0.0552    0.5503   -0.1775 C   0  0  0  0  0  0  0  0  0  0  0  0
    4.4762    0.3332    0.6645 C   0  0  0  0  0  0  0  0  0  0  0  0
   -1.2928   -0.3335   -0.0225 C   0  0  0  0  0  0  0  0  0  0  0  0
   -2.5950    0.4728   -0.0475 C   0  0  0  0  0  0  0  0  0  0  0  0
   -3.8108   -0.4343    0.1437 C   0  0  0  0  0  0  0  0  0  0  0  0
   -5.1043    0.3644    0.1646 C   0  0  0  0  0  0  0  0  0  0  0  0
  1  2  1  0  0  0  0
  1  3  1  0  0  0  0
  4  2  2  0  0  0  0
  5  2  1  0  0  0  0
  3  6  2  0  0  0  0
  7  5  1  0  0  0  0
  8  7  1  0  0  0  0
  8  9  1  0  0  0  0
  9 10  1  0  0  0  0
M  END
>  <Name>
ethenyl hexanoate

>  <IGC50>
3.08

>  <CAS>
3050-69-9

>  <SET>
ws

>  <Species>
Tetrahymena pyriformis

>  <Test duration>
48h

$$$$

  Mrv1808 07152009202D          

  7  7  0  0  0  0            999 V2000
    0.8250   -0.7135    0.0000 C   0  0  0  0  0  0  0  0  0  0  0  0
    1.2387    0.0000    0.0000 C   0  0  0  0  0  0  0  0  0  0  0  0
    1.2387   -1.4295    0.0000 C   0  0  0  0  0  0  0  0  0  0  0  0
    0.0000   -0.7135    0.0000 Br  0  0  0  0  0  0  0  0  0  0  0  0
    2.0637    0.0000    0.0000 C   0  0  0  0  0  0  0  0  0  0  0  0
    2.0637   -1.4295    0.0000 C   0  0  0  0  0  0  0  0  0  0  0  0
    2.4775   -0.7135    0.0000 C   0  0  0  0  0  0  0  0  0  0  0  0
  1  2  2  0  0  0  0
  1  3  1  0  0  0  0
  1  4  1  0  0  0  0
  2  5  1  0  0  0  0
  6  3  2  0  0  0  0
  5  7  2  0  0  0  0
  7  6  1  0  0  0  0
M  END
>  <Name>
Benzene, bromo-

>  <IGC50>
3.08

>  <CAS>
108-86-1

>  <SET>
ws

>  <Species>
Tetrahymena pyriformis

>  <Test duration>
48h

$$$$

  Mrv1808 07152009202D          

 10  9  0  0  0  0            999 V2000
    2.0396    0.7704    0.0000 C   0  0  0  0  0  0  0  0  0  0  0  0
    1.7696   -0.0092    0.0000 C   0  0  0  0  0  0  0  0  0  0  0  0
    0.9594   -0.1651    0.0000 C   0  0  0  0  0  0  0  0  0  0  0  0
    0.1493   -0.3210    0.0000 C   0  0  0  0  0  0  0  0  0  0  0  0
   -0.6608   -0.4769    0.0000 C   0  0  0  0  0  0  0  0  0  0  0  0
    0.3052   -1.1311    0.0000 C   0  0  0  0  0  0  0  0  0  0  0  0
   -1.2009    0.1467    0.0000 C   0  0  0  0  0  0  0  0  0  0  0  0
   -0.9309    0.9263    0.0000 C   0  0  0  0  0  0  0  0  0  0  0  0
   -2.0111   -0.0092    0.0000 C   0  0  0  0  0  0  0  0  0  0  0  0
   -0.1208    1.0822    0.0000 O   0  0  0  0  0  0  0  0  0  0  0  0
  1  2  2  0  0  0  0
  2  3  1  0  0  0  0
  3  4  1  0  0  0  0
  4  5  1  0  0  0  0
  4  6  1  0  0  0  0
  5  7  2  0  0  0  0
  7  8  1  0  0  0  0
  7  9  1  0  0  0  0
  8 10  2  0  0  0  0
M  END
>  <Name>
2,4-Dimethyl-2,6-heptadienal

>  <IGC50>
3.08

>  <CAS>
80192-48-9

>  <SET>
ws

>  <Species>
Tetrahymena pyriformis

>  <Test duration>
48h

$$$$

  Mrv1808 07152009202D          

  9  9  0  0  0  0            999 V2000
    1.2375   -1.4279    0.0000 C   0  0  0  0  0  0  0  0  0  0  0  0
    0.4125   -1.4279    0.0000 C   0  0  0  0  0  0  0  0  0  0  0  0
    1.6472   -0.7125    0.0000 C   0  0  0  0  0  0  0  0  0  0  0  0
    1.6472   -2.1404    0.0000 C   0  0  0  0  0  0  0  0  0  0  0  0
    0.0000   -2.1404    0.0000 O   0  0  0  0  0  0  0  0  0  0  0  0
    1.2375    0.0000    0.0000 F   0  0  0  0  0  0  0  0  0  0  0  0
    2.4722   -0.7125    0.0000 C   0  0  0  0  0  0  0  0  0  0  0  0
    2.4722   -2.1404    0.0000 C   0  0  0  0  0  0  0  0  0  0  0  0
    2.8846   -1.4279    0.0000 C   0  0  0  0  0  0  0  0  0  0  0  0
  1  2  1  0  0  0  0
  1  3  2  0  0  0  0
  1  4  1  0  0  0  0
  2  5  2  0  0  0  0
  3  6  1  0  0  0  0
  3  7  1  0  0  0  0
  8  4  2  0  0  0  0
  7  9  2  0  0  0  0
  9  8  1  0  0  0  0
M  END
>  <Name>
Benzaldehyde, o-fluoro- (8CI)

>  <IGC50>
3.079

>  <CAS>
446-52-6

>  <SET>
ws

>  <Species>
Tetrahymena pyriformis

>  <Test duration>
48h

$$$$

  Mrv1808 07152009202D          

 10  9  0  0  0  0            999 V2000
    2.4788   -0.7136    0.0000 O   0  0  0  0  0  0  0  0  0  0  0  0
    1.6501   -0.7136    0.0000 C   0  0  0  0  0  0  0  0  0  0  0  0
    1.2376    0.0000    0.0000 O   0  0  0  0  0  0  0  0  0  0  0  0
    1.2376   -1.4308    0.0000 C   0  0  0  0  0  0  0  0  0  0  0  0
    1.6501   -2.1443    0.0000 C   0  0  0  0  0  0  0  0  0  0  0  0
    0.4125   -1.4308    0.0000 C   0  0  0  0  0  0  0  0  0  0  0  0
    2.4788   -2.1443    0.0000 C   0  0  0  0  0  0  0  0  0  0  0  0
    0.0000   -2.1443    0.0000 C   0  0  0  0  0  0  0  0  0  0  0  0
    2.8913   -1.4308    0.0000 C   0  0  0  0  0  0  0  0  0  0  0  0
    3.7163   -1.4308    0.0000 C   0  0  0  0  0  0  0  0  0  0  0  0
  1  2  2  0  0  0  0
  2  3  1  0  0  0  0
  2  4  1  0  0  0  0
  4  5  1  0  0  0  0
  4  6  1  0  0  0  0
  5  7  1  0  0  0  0
  6  8  1  0  0  0  0
  7  9  1  0  0  0  0
  9 10  1  0  0  0  0
M  END
>  <Name>
Hexanoic acid, 2-ethyl-

>  <IGC50>
3.076

>  <CAS>
149-57-5

>  <SET>
ws

>  <Species>
Tetrahymena pyriformis

>  <Test duration>
48h

$$$$

  Mrv1808 07152009202D          

 11 11  0  0  0  0            999 V2000
    1.2350   -0.7163    0.0000 C   0  0  0  0  0  0  0  0  0  0  0  0
    0.4100   -0.7163    0.0000 C   0  0  0  0  0  0  0  0  0  0  0  0
    1.6450    0.0000    0.0000 C   0  0  0  0  0  0  0  0  0  0  0  0
    1.6450   -1.4276    0.0000 C   0  0  0  0  0  0  0  0  0  0  0  0
    0.0000    0.0000    0.0000 O   0  0  0  0  0  0  0  0  0  0  0  0
    2.4700    0.0000    0.0000 C   0  0  0  0  0  0  0  0  0  0  0  0
    2.4700   -1.4276    0.0000 C   0  0  0  0  0  0  0  0  0  0  0  0
    2.8800   -0.7163    0.0000 C   0  0  0  0  0  0  0  0  0  0  0  0
    3.7050   -0.7163    0.0000 O   0  0  0  0  0  0  0  0  0  0  0  0
    4.1150   -1.4276    0.0000 C   0  0  0  0  0  0  0  0  0  0  0  0
    4.9400   -1.4276    0.0000 C   0  0  0  0  0  0  0  0  0  0  0  0
  1  2  1  0  0  0  0
  1  3  2  0  0  0  0
  1  4  1  0  0  0  0
  2  5  2  0  0  0  0
  3  6  1  0  0  0  0
  7  4  2  0  0  0  0
  6  8  2  0  0  0  0
  8  7  1  0  0  0  0
  8  9  1  0  0  0  0
  9 10  1  0  0  0  0
 10 11  1  0  0  0  0
M  END
>  <Name>
Benzaldehyde, 4-ethoxy-

>  <IGC50>
3.073

>  <CAS>
10031-82-0

>  <SET>
ws

>  <Species>
Tetrahymena pyriformis

>  <Test duration>
48h

$$$$

  Mrv1808 07152009202D          

  9  9  0  0  0  0            999 V2000
    1.2374   -0.7172    0.0000 N   0  0  0  0  0  0  0  0  0  0  0  0
    2.0662   -0.7172    0.0000 C   0  0  0  0  0  0  0  0  0  0  0  0
    0.8249    0.0000    0.0000 C   0  0  0  0  0  0  0  0  0  0  0  0
    2.4786    0.0000    0.0000 C   0  0  0  0  0  0  0  0  0  0  0  0
    2.4786   -1.4307    0.0000 C   0  0  0  0  0  0  0  0  0  0  0  0
    0.0000    0.0000    0.0000 C   0  0  0  0  0  0  0  0  0  0  0  0
    3.3036    0.0000    0.0000 C   0  0  0  0  0  0  0  0  0  0  0  0
    3.3036   -1.4307    0.0000 C   0  0  0  0  0  0  0  0  0  0  0  0
    3.7161   -0.7172    0.0000 C   0  0  0  0  0  0  0  0  0  0  0  0
  1  2  1  0  0  0  0
  1  3  1  0  0  0  0
  2  4  2  0  0  0  0
  2  5  1  0  0  0  0
  3  6  1  0  0  0  0
  4  7  1  0  0  0  0
  8  5  2  0  0  0  0
  7  9  2  0  0  0  0
  9  8  1  0  0  0  0
M  END
>  <Name>
Benzenamine, N-ethyl-

>  <IGC50>
3.07

>  <CAS>
103-69-5

>  <SET>
ws

>  <Species>
Tetrahymena pyriformis

>  <Test duration>
48h

$$$$

  Mrv1808 07152009202D          

 10 10  0  0  0  0            999 V2000
    0.0000    0.0000    0.0000 C   0  0  0  0  0  0  0  0  0  0  0  0
    0.4183    0.7111    0.0000 C   0  0  0  0  0  0  0  0  0  0  0  0
    1.2549    0.7111    0.0000 C   0  0  0  0  0  0  0  0  0  0  0  0
    1.6732    1.4222    0.0000 C   0  0  0  0  0  0  0  0  0  0  0  0
    1.6732    0.0000    0.0000 C   0  0  0  0  0  0  0  0  0  0  0  0
    2.5098    1.4222    0.0000 C   0  0  0  0  0  0  0  0  0  0  0  0
    2.5098    0.0000    0.0000 C   0  0  0  0  0  0  0  0  0  0  0  0
    2.9281    0.7111    0.0000 C   0  0  0  0  0  0  0  0  0  0  0  0
    3.7647    0.7111    0.0000 C   0  0  0  0  0  0  0  0  0  0  0  0
    4.1830    1.4222    0.0000 O   0  0  0  0  0  0  0  0  0  0  0  0
  1  2  1  0  0  0  0
  2  3  1  0  0  0  0
  4  3  2  0  0  0  0
  3  5  1  0  0  0  0
  6  4  1  0  0  0  0
  5  7  2  0  0  0  0
  8  6  2  0  0  0  0
  7  8  1  0  0  0  0
  8  9  1  0  0  0  0
  9 10  1  0  0  0  0
M  END
>  <Name>
Benzenemethanol, 4-ethyl-

>  <IGC50>
3.07

>  <CAS>
768-59-2

>  <SET>
ws

>  <Species>
Tetrahymena pyriformis

>  <Test duration>
48h

$$$$

  Mrv1808 07152009203D          

 10 10  0  0  0  0            999 V2000
    4.2392   -0.7832   -0.0316 O   0  0  0  0  0  0  0  0  0  0  0  0
    3.6263    0.4974    0.0177 C   0  0  0  0  0  0  0  0  0  0  0  0
    2.1717    0.3487    0.0124 C   0  0  0  0  0  0  0  0  0  0  0  0
    0.9748    0.2292    0.0081 C   0  0  0  0  0  0  0  0  0  0  0  0
   -0.4472    0.0886    0.0034 C   0  0  0  0  0  0  0  0  0  0  0  0
   -1.2602    1.2220   -0.0076 C   0  0  0  0  0  0  0  0  0  0  0  0
   -1.0224   -1.1823    0.0099 C   0  0  0  0  0  0  0  0  0  0  0  0
   -2.6483    1.0848   -0.0121 C   0  0  0  0  0  0  0  0  0  0  0  0
   -2.4106   -1.3194    0.0053 C   0  0  0  0  0  0  0  0  0  0  0  0
   -3.2234   -0.1858   -0.0056 C   0  0  0  0  0  0  0  0  0  0  0  0
  1  2  1  0  0  0  0
  2  3  1  0  0  0  0
  4  3  3  0  0  0  0
  5  4  1  0  0  0  0
  5  6  2  0  0  0  0
  5  7  1  0  0  0  0
  6  8  1  0  0  0  0
  7  9  2  0  0  0  0
  8 10  2  0  0  0  0
  9 10  1  0  0  0  0
M  END
>  <Name>
3-phenylprop-2-yn-1-ol

>  <IGC50>
3.07

>  <CAS>
1504-58-1

>  <SET>
ws

>  <Species>
Tetrahymena pyriformis

>  <Test duration>
48h

$$$$

  Mrv1808 07152009202D          

  8  7  0  0  0  0            999 V2000
    0.8249    2.1449    0.0000 O   0  0  0  0  0  0  0  0  0  0  0  0
    0.0000    2.1449    0.0000 C   0  0  0  0  0  0  0  0  0  0  0  0
    1.2374    1.4299    0.0000 C   0  0  0  0  0  0  0  0  0  0  0  0
    0.8249    0.7150    0.0000 O   0  0  0  0  0  0  0  0  0  0  0  0
    2.0624    1.4299    0.0000 C   0  0  0  0  0  0  0  0  0  0  0  0
    2.4749    0.7150    0.0000 C   0  0  0  0  0  0  0  0  0  0  0  0
    3.2998    0.7150    0.0000 C   0  0  0  0  0  0  0  0  0  0  0  0
    3.7123    0.0000    0.0000 Br  0  0  0  0  0  0  0  0  0  0  0  0
  1  2  1  0  0  0  0
  1  3  1  0  0  0  0
  3  4  2  0  0  0  0
  3  5  1  0  0  0  0
  5  6  1  0  0  0  0
  6  7  1  0  0  0  0
  7  8  1  0  0  0  0
M  END
>  <Name>
methyl 4-bromobutanoate

>  <IGC50>
3.068

>  <CAS>
4897-84-1

>  <SET>
ws

>  <Species>
Tetrahymena pyriformis

>  <Test duration>
48h

$$$$

  Mrv1808 07152009202D          

 10  9  0  0  0  0            999 V2000
    0.0000   -1.4276    0.0000 C   0  0  0  0  0  0  0  0  0  0  0  0
    0.4100   -0.7163    0.0000 C   0  0  0  0  0  0  0  0  0  0  0  0
    1.2350   -0.7163    0.0000 C   0  0  0  0  0  0  0  0  0  0  0  0
    1.6450    0.0000    0.0000 C   0  0  0  0  0  0  0  0  0  0  0  0
    2.4700    0.0000    0.0000 C   0  0  0  0  0  0  0  0  0  0  0  0
    2.8800   -0.7163    0.0000 C   0  0  0  0  0  0  0  0  0  0  0  0
    2.4700   -1.4276    0.0000 O   0  0  0  0  0  0  0  0  0  0  0  0
    3.7050   -0.7163    0.0000 O   0  0  0  0  0  0  0  0  0  0  0  0
    4.1150   -1.4276    0.0000 C   0  0  0  0  0  0  0  0  0  0  0  0
    4.9400   -1.4276    0.0000 C   0  0  0  0  0  0  0  0  0  0  0  0
  1  2  1  0  0  0  0
  2  3  1  0  0  0  0
  3  4  1  0  0  0  0
  4  5  1  0  0  0  0
  5  6  1  0  0  0  0
  6  7  2  0  0  0  0
  6  8  1  0  0  0  0
  8  9  1  0  0  0  0
  9 10  1  0  0  0  0
M  END
>  <Name>
Hexanoic acid, ethyl ester

>  <IGC50>
3.064

>  <CAS>
123-66-0

>  <SET>
ws

>  <Species>
Tetrahymena pyriformis

>  <Test duration>
48h

$$$$

  Mrv1808 07152009202D          

  8  8  0  0  0  0            999 V2000
    2.8846   -0.7154    0.0000 C   0  0  0  0  0  0  0  0  0  0  0  0
    2.4721   -1.4279    0.0000 C   0  0  0  0  0  0  0  0  0  0  0  0
    2.4721    0.0000    0.0000 C   0  0  0  0  0  0  0  0  0  0  0  0
    1.6471   -1.4279    0.0000 C   0  0  0  0  0  0  0  0  0  0  0  0
    1.6471    0.0000    0.0000 C   0  0  0  0  0  0  0  0  0  0  0  0
    1.2375   -0.7154    0.0000 C   0  0  0  0  0  0  0  0  0  0  0  0
    0.4125   -0.7154    0.0000 N   0  0  0  0  0  0  0  0  0  0  0  0
    0.0000    0.0000    0.0000 C   0  0  0  0  0  0  0  0  0  0  0  0
  1  2  2  0  0  0  0
  1  3  1  0  0  0  0
  2  4  1  0  0  0  0
  3  5  2  0  0  0  0
  4  6  2  0  0  0  0
  6  5  1  0  0  0  0
  6  7  1  0  0  0  0
  7  8  1  0  0  0  0
M  END
>  <Name>
Benzenamine, N-methyl-

>  <IGC50>
3.06

>  <CAS>
100-61-8

>  <SET>
ws

>  <Species>
Tetrahymena pyriformis

>  <Test duration>
48h

$$$$

  Mrv1808 07152009203D          

 11 11  0  0  0  0            999 V2000
    1.2911   -0.3672    0.2482 C   0  0  1  0  0  0  0  0  0  0  0  0
   -0.2175   -0.1707    0.1515 C   0  0  0  0  0  0  0  0  0  0  0  0
    1.6183   -1.8666    0.3893 C   0  0  0  0  0  0  0  0  0  0  0  0
    1.9734    0.1793   -1.0276 C   0  0  0  0  0  0  0  0  0  0  0  0
    1.8584    0.3361    1.3463 O   0  0  0  0  0  0  0  0  0  0  0  0
   -0.8506    0.9233    0.7429 C   0  0  0  0  0  0  0  0  0  0  0  0
   -0.9832   -1.0849   -0.5768 C   0  0  0  0  0  0  0  0  0  0  0  0
    1.7699    1.6604   -1.2492 C   0  0  0  0  0  0  0  0  0  0  0  0
   -2.2271    1.0868    0.6221 C   0  0  0  0  0  0  0  0  0  0  0  0
   -2.3563   -0.9183   -0.7000 C   0  0  0  0  0  0  0  0  0  0  0  0
   -2.9823    0.1677   -0.0967 C   0  0  0  0  0  0  0  0  0  0  0  0
  1  2  1  0  0  0  0
  1  3  1  0  0  0  0
  1  4  1  0  0  0  0
  1  5  1  0  0  0  0
  2  6  1  0  0  0  0
  2  7  2  0  0  0  0
  4  8  1  0  0  0  0
  6  9  2  0  0  0  0
 10  7  1  0  0  0  0
  9 11  1  0  0  0  0
 11 10  2  0  0  0  0
M  END
>  <Name>
Benzenemethanol, alpha-ethyl-alpha-methyl-

>  <IGC50>
3.06

>  <CAS>
1565-75-9

>  <SET>
ws

>  <Species>
Tetrahymena pyriformis

>  <Test duration>
48h

$$$$

  Mrv1808 07152009202D          

  8  8  0  0  0  0            999 V2000
    0.0000   -0.7161    0.0000 N   0  0  0  0  0  0  0  0  0  0  0  0
    0.8250   -0.7161    0.0000 C   0  0  0  0  0  0  0  0  0  0  0  0
    1.2375    0.0000    0.0000 C   0  0  0  0  0  0  0  0  0  0  0  0
    1.2375   -1.4289    0.0000 C   0  0  0  0  0  0  0  0  0  0  0  0
    2.0625    0.0000    0.0000 C   0  0  0  0  0  0  0  0  0  0  0  0
    2.0625   -1.4289    0.0000 C   0  0  0  0  0  0  0  0  0  0  0  0
    2.4750   -0.7161    0.0000 C   0  0  0  0  0  0  0  0  0  0  0  0
    3.3001   -0.7161    0.0000 Cl  0  0  0  0  0  0  0  0  0  0  0  0
  1  2  1  0  0  0  0
  2  3  2  0  0  0  0
  2  4  1  0  0  0  0
  3  5  1  0  0  0  0
  6  4  2  0  0  0  0
  5  7  2  0  0  0  0
  7  6  1  0  0  0  0
  7  8  1  0  0  0  0
M  END
>  <Name>
Benzenamine, 4-chloro-

>  <IGC50>
3.05

>  <CAS>
106-47-8

>  <SET>
ws

>  <Species>
Tetrahymena pyriformis

>  <Test duration>
48h

$$$$

  Mrv1808 07152009202D          

  8  7  0  0  0  0            999 V2000
    2.9279    0.4601    0.0000 C   0  0  0  0  0  0  0  0  0  0  0  0
    2.1751    0.0000    0.0000 C   0  0  0  0  0  0  0  0  0  0  0  0
    3.6390    0.0419    0.0000 C   0  0  0  0  0  0  0  0  0  0  0  0
    1.4640    0.4183    0.0000 C   0  0  0  0  0  0  0  0  0  0  0  0
    4.3501    0.4183    0.0000 C   0  0  0  0  0  0  0  0  0  0  0  0
    0.7529    0.0000    0.0000 C   0  0  0  0  0  0  0  0  0  0  0  0
    5.1030    0.0000    0.0000 O   0  0  0  0  0  0  0  0  0  0  0  0
    0.0000    0.4183    0.0000 C   0  0  0  0  0  0  0  0  0  0  0  0
  1  2  1  0  0  0  0
  1  3  2  0  0  0  0
  2  4  1  0  0  0  0
  3  5  1  0  0  0  0
  4  6  1  0  0  0  0
  5  7  1  0  0  0  0
  6  8  1  0  0  0  0
M  END
>  <Name>
2-Hepten-1-ol, (E)- (8CI)(9CI)

>  <IGC50>
3.045

>  <CAS>
33467-76-4

>  <SET>
ws

>  <Species>
Tetrahymena pyriformis

>  <Test duration>
48h

$$$$

  Mrv1808 07152009203D          

  9  8  0  0  0  0            999 V2000
   -0.7561    1.6484   -0.0003 O   0  0  0  0  0  0  0  0  0  0  0  0
   -0.8122    0.4253    0.0016 C   0  0  0  0  0  0  0  0  0  0  0  0
    0.3907   -0.4912    0.0074 C   0  0  0  0  0  0  0  0  0  0  0  0
   -2.1916   -0.2029   -0.0043 C   0  0  0  0  0  0  0  0  0  0  0  0
    1.7041    0.2908    0.0302 C   0  0  0  0  0  0  0  0  0  0  0  0
   -3.1598    0.5463   -0.0107 O   0  0  0  0  0  0  0  0  0  0  0  0
   -2.3033   -1.6981    0.0000 C   0  0  0  0  0  0  0  0  0  0  0  0
    2.9102   -0.6468   -0.0036 C   0  0  0  0  0  0  0  0  0  0  0  0
    4.2181    0.1283   -0.0204 C   0  0  0  0  0  0  0  0  0  0  0  0
  1  2  2  0  0  0  0
  3  2  1  0  0  0  0
  2  4  1  0  0  0  0
  5  3  1  0  0  0  0
  6  4  2  0  0  0  0
  4  7  1  0  0  0  0
  5  8  1  0  0  0  0
  8  9  1  0  0  0  0
M  END
>  <Name>
heptane-2,3-dione

>  <IGC50>
3.04

>  <CAS>
96-04-8

>  <SET>
ws

>  <Species>
Tetrahymena pyriformis

>  <Test duration>
48h

$$$$

  Mrv1808 07152009202D          

 10 10  0  0  0  0            999 V2000
    0.0000    0.7110    0.0000 N   0  0  0  0  0  0  0  0  0  0  0  0
    0.7947    0.7110    0.0000 C   0  0  0  0  0  0  0  0  0  0  0  0
    1.6730    0.7110    0.0000 C   0  0  0  0  0  0  0  0  0  0  0  0
    2.0913    1.4221    0.0000 C   0  0  0  0  0  0  0  0  0  0  0  0
    2.0913    0.0000    0.0000 C   0  0  0  0  0  0  0  0  0  0  0  0
    2.9278    1.4221    0.0000 C   0  0  0  0  0  0  0  0  0  0  0  0
    2.9278    0.0000    0.0000 C   0  0  0  0  0  0  0  0  0  0  0  0
    3.3461    0.7110    0.0000 C   0  0  0  0  0  0  0  0  0  0  0  0
    4.1827    0.7110    0.0000 C   0  0  0  0  0  0  0  0  0  0  0  0
    4.6008    1.4221    0.0000 O   0  0  0  0  0  0  0  0  0  0  0  0
  1  2  3  0  0  0  0
  2  3  1  0  0  0  0
  4  3  2  0  0  0  0
  3  5  1  0  0  0  0
  6  4  1  0  0  0  0
  5  7  2  0  0  0  0
  8  6  2  0  0  0  0
  7  8  1  0  0  0  0
  8  9  1  0  0  0  0
  9 10  2  0  0  0  0
M  END
>  <Name>
Terephthalaldehydonitrile (8CI)

>  <IGC50>
3.04

>  <CAS>
105-07-7

>  <SET>
ws

>  <Species>
Tetrahymena pyriformis

>  <Test duration>
48h

$$$$

  Mrv1808 07152009203D          

 11 11  0  0  0  0            999 V2000
   -2.9033    1.4856    0.1288 F   0  0  0  0  0  0  0  0  0  0  0  0
   -1.8971    0.6040    0.0599 C   0  0  0  0  0  0  0  0  0  0  0  0
   -0.5758    1.0497    0.0929 C   0  0  0  0  0  0  0  0  0  0  0  0
   -2.1707   -0.7597   -0.0450 C   0  0  0  0  0  0  0  0  0  0  0  0
    0.4719    0.1316    0.0211 C   0  0  0  0  0  0  0  0  0  0  0  0
   -1.1231   -1.6778   -0.1166 C   0  0  0  0  0  0  0  0  0  0  0  0
    0.1982   -1.2321   -0.0837 C   0  0  0  0  0  0  0  0  0  0  0  0
    1.8440    0.6182    0.0575 C   0  0  0  0  0  0  0  0  0  0  0  0
    1.2077   -2.1449   -0.1556 O   0  0  0  0  0  0  0  0  0  0  0  0
    2.7645   -0.0712    0.5374 O   0  0  0  0  0  0  0  0  0  0  0  0
    2.1837    1.9965   -0.4967 C   0  0  0  0  0  0  0  0  0  0  0  0
  1  2  1  0  0  0  0
  3  2  2  0  0  0  0
  2  4  1  0  0  0  0
  5  3  1  0  0  0  0
  6  4  2  0  0  0  0
  5  7  2  0  0  0  0
  5  8  1  0  0  0  0
  7  6  1  0  0  0  0
  9  7  1  0  0  0  0
 10  8  2  0  0  0  0
  8 11  1  0  0  0  0
M  END
>  <Name>
1-(5-fluoro-2-hydroxyphenyl)ethanone

>  <IGC50>
3.04

>  <CAS>
394-32-1

>  <SET>
ws

>  <Species>
Tetrahymena pyriformis

>  <Test duration>
48h

$$$$

  Mrv1808 07152009202D          

  9  8  0  0  0  0            999 V2000
    2.0626    0.0000    0.0000 C   0  0  0  0  0  0  0  0  0  0  0  0
    1.2375    0.0000    0.0000 C   0  0  0  0  0  0  0  0  0  0  0  0
    2.4705   -0.7162    0.0000 C   0  0  0  0  0  0  0  0  0  0  0  0
    0.8250   -0.7162    0.0000 N   0  3  0  0  0  0  0  0  0  0  0  0
    3.2955   -0.7162    0.0000 C   0  0  0  0  0  0  0  0  0  0  0  0
    0.0000   -0.7162    0.0000 O   0  0  0  0  0  0  0  0  0  0  0  0
    1.2375   -1.4279    0.0000 O   0  5  0  0  0  0  0  0  0  0  0  0
    3.7080   -1.4279    0.0000 C   0  0  0  0  0  0  0  0  0  0  0  0
    4.5330   -1.4279    0.0000 C   0  0  0  0  0  0  0  0  0  0  0  0
  1  2  1  0  0  0  0
  1  3  1  0  0  0  0
  2  4  1  0  0  0  0
  3  5  1  0  0  0  0
  4  6  2  0  0  0  0
  4  7  1  0  0  0  0
  5  8  1  0  0  0  0
  8  9  1  0  0  0  0
M  CHG  2   4   1   7  -1
M  END
>  <Name>
Hexane, 1-nitro-

>  <IGC50>
3.04

>  <CAS>
646-14-0

>  <SET>
ws

>  <Species>
Tetrahymena pyriformis

>  <Test duration>
48h

$$$$

  Mrv1808 07152009203D          

  5  4  0  0  0  0            999 V2000
    1.0376   -0.0820   -0.0451 C   0  0  0  0  0  0  0  0  0  0  0  0
   -0.2233   -0.8617   -0.3344 C   0  0  0  0  0  0  0  0  0  0  0  0
    2.1087   -0.6144    0.2295 O   0  0  0  0  0  0  0  0  0  0  0  0
    1.0171    1.3068   -0.1219 N   0  0  0  0  0  0  0  0  0  0  0  0
   -1.6720    0.0609    0.1139 Cl  0  0  0  0  0  0  0  0  0  0  0  0
  1  2  1  0  0  0  0
  1  3  2  0  0  0  0
  1  4  1  0  0  0  0
  2  5  1  0  0  0  0
M  END
>  <Name>
Acetamide, 2-chloro-

>  <IGC50>
3.036

>  <CAS>
79-07-2

>  <SET>
ws

>  <Species>
Tetrahymena pyriformis

>  <Test duration>
48h

$$$$

  Mrv1808 07152009202D          

  9  8  0  0  0  0            999 V2000
    1.4640    1.2549    0.0000 C   0  0  0  0  0  0  0  0  0  0  0  0
    2.1751    0.8366    0.0000 C   0  0  0  0  0  0  0  0  0  0  0  0
    0.7529    0.8366    0.0000 C   0  0  0  0  0  0  0  0  0  0  0  0
    2.9280    1.2549    0.0000 C   0  0  0  0  0  0  0  0  0  0  0  0
    0.7529    0.0000    0.0000 O   0  0  0  0  0  0  0  0  0  0  0  0
    0.0000    1.2549    0.0000 O   0  0  0  0  0  0  0  0  0  0  0  0
    3.6391    0.8366    0.0000 C   0  0  0  0  0  0  0  0  0  0  0  0
    4.3502    1.2549    0.0000 C   0  0  0  0  0  0  0  0  0  0  0  0
    5.1031    0.8366    0.0000 Br  0  0  0  0  0  0  0  0  0  0  0  0
  1  2  1  0  0  0  0
  1  3  1  0  0  0  0
  2  4  1  0  0  0  0
  3  5  1  0  0  0  0
  3  6  2  0  0  0  0
  4  7  1  0  0  0  0
  7  8  1  0  0  0  0
  8  9  1  0  0  0  0
M  END
>  <Name>
Hexanoic acid, 6-bromo-

>  <IGC50>
3.031

>  <CAS>
4224-70-8

>  <SET>
ws

>  <Species>
Tetrahymena pyriformis

>  <Test duration>
48h

$$$$

  Mrv1808 07152009202D          

  9  9  0  0  0  0            999 V2000
    3.7057   -0.7152    0.0000 N   0  0  0  0  0  0  0  0  0  0  0  0
    2.8830   -0.7152    0.0000 C   0  0  0  0  0  0  0  0  0  0  0  0
    2.4717   -1.4267    0.0000 C   0  0  0  0  0  0  0  0  0  0  0  0
    2.4717    0.0000    0.0000 C   0  0  0  0  0  0  0  0  0  0  0  0
    1.6453   -1.4267    0.0000 C   0  0  0  0  0  0  0  0  0  0  0  0
    1.6453    0.0000    0.0000 C   0  0  0  0  0  0  0  0  0  0  0  0
    1.2340   -0.7152    0.0000 C   0  0  0  0  0  0  0  0  0  0  0  0
    0.4113   -0.7152    0.0000 C   0  0  0  0  0  0  0  0  0  0  0  0
    0.0000    0.0000    0.0000 C   0  0  0  0  0  0  0  0  0  0  0  0
  1  2  1  0  0  0  0
  2  3  2  0  0  0  0
  2  4  1  0  0  0  0
  3  5  1  0  0  0  0
  6  4  2  0  0  0  0
  5  7  2  0  0  0  0
  7  6  1  0  0  0  0
  7  8  1  0  0  0  0
  8  9  1  0  0  0  0
M  END
>  <Name>
Aniline, p-ethyl- (8CI)

>  <IGC50>
3.03

>  <CAS>
589-16-2

>  <SET>
ws

>  <Species>
Tetrahymena pyriformis

>  <Test duration>
48h

$$$$

  Mrv1808 07152009202D          

 10 10  0  0  0  0            999 V2000
    1.1179    0.0000    0.0000 C   0  0  0  0  0  0  0  0  0  0  0  0
    0.2484    0.0000    0.0000 C   0  0  0  0  0  0  0  0  0  0  0  0
    1.3663    0.7867    0.0000 C   0  0  0  0  0  0  0  0  0  0  0  0
    0.0000    0.7867    0.0000 C   0  0  0  0  0  0  0  0  0  0  0  0
    0.6624    1.2421    0.0000 S   0  0  0  0  0  0  0  0  0  0  0  0
    2.0702    1.2007    0.0000 C   0  0  0  0  0  0  0  0  0  0  0  0
    2.0702    2.0288    0.0000 O   0  0  0  0  0  0  0  0  0  0  0  0
    2.7326    0.7867    0.0000 O   0  0  0  0  0  0  0  0  0  0  0  0
    3.4365    1.2007    0.0000 C   0  0  0  0  0  0  0  0  0  0  0  0
    4.1818    0.7867    0.0000 C   0  0  0  0  0  0  0  0  0  0  0  0
  1  2  1  0  0  0  0
  3  1  2  0  0  0  0
  2  4  2  0  0  0  0
  5  3  1  0  0  0  0
  3  6  1  0  0  0  0
  4  5  1  0  0  0  0
  6  7  2  0  0  0  0
  6  8  1  0  0  0  0
  8  9  1  0  0  0  0
 10  9  1  0  0  0  0
M  END
>  <Name>
ethyl thiophene-2-carboxylate

>  <IGC50>
3.03

>  <CAS>
2810-04-0

>  <SET>
ws

>  <Species>
Tetrahymena pyriformis

>  <Test duration>
48h

$$$$

  Mrv1808 07152009202D          

 10  9  0  0  0  0            999 V2000
    2.1456   -0.4148    0.0000 C   0  0  0  0  0  0  0  0  0  0  0  0
    2.8607    0.0000    0.0000 O   0  0  0  0  0  0  0  0  0  0  0  0
    1.4304    0.0000    0.0000 O   0  0  0  0  0  0  0  0  0  0  0  0
    2.1456   -1.2409    0.0000 C   0  0  0  0  0  0  0  0  0  0  0  0
    2.8607   -1.6521    0.0000 C   0  0  0  0  0  0  0  0  0  0  0  0
    1.4304   -1.6521    0.0000 C   0  0  0  0  0  0  0  0  0  0  0  0
    3.5759   -1.2409    0.0000 C   0  0  0  0  0  0  0  0  0  0  0  0
    0.7152   -1.2409    0.0000 C   0  0  0  0  0  0  0  0  0  0  0  0
    3.5759   -0.4148    0.0000 C   0  0  0  0  0  0  0  0  0  0  0  0
    0.0000   -1.6521    0.0000 C   0  0  0  0  0  0  0  0  0  0  0  0
  1  2  2  0  0  0  0
  1  3  1  0  0  0  0
  1  4  1  0  0  0  0
  4  5  1  0  0  0  0
  4  6  1  0  0  0  0
  5  7  1  0  0  0  0
  6  8  1  0  0  0  0
  7  9  1  0  0  0  0
  8 10  1  0  0  0  0
M  END
>  <Name>
Pentanoic acid, 2-propyl-

>  <IGC50>
3.026

>  <CAS>
99-66-1

>  <SET>
ws

>  <Species>
Tetrahymena pyriformis

>  <Test duration>
48h

$$$$

  Mrv1808 07152009202D          

 10  9  0  0  0  0            999 V2000
    2.1751    1.2549    0.0000 C   0  0  0  0  0  0  0  0  0  0  0  0
    1.4640    0.8366    0.0000 C   0  0  0  0  0  0  0  0  0  0  0  0
    2.8862    0.8366    0.0000 O   0  0  0  0  0  0  0  0  0  0  0  0
    2.1751    2.0915    0.0000 O   0  0  0  0  0  0  0  0  0  0  0  0
    0.7111    1.2549    0.0000 C   0  0  0  0  0  0  0  0  0  0  0  0
    1.4640    0.0000    0.0000 Br  0  0  0  0  0  0  0  0  0  0  0  0
    3.6391    1.2549    0.0000 C   0  0  0  0  0  0  0  0  0  0  0  0
    0.7111    2.0915    0.0000 C   0  0  0  0  0  0  0  0  0  0  0  0
    0.0000    0.8366    0.0000 C   0  0  0  0  0  0  0  0  0  0  0  0
    4.3502    0.8366    0.0000 C   0  0  0  0  0  0  0  0  0  0  0  0
  1  2  1  0  0  0  0
  1  3  1  0  0  0  0
  1  4  2  0  0  0  0
  2  5  1  0  0  0  0
  2  6  1  0  0  0  0
  3  7  1  0  0  0  0
  5  8  1  0  0  0  0
  5  9  1  0  0  0  0
  7 10  1  0  0  0  0
M  END
>  <Name>
Butanoic acid, 2-bromo-3-methyl-, ethyl ester

>  <IGC50>
3.021

>  <CAS>
609-12-1

>  <SET>
ws

>  <Species>
Tetrahymena pyriformis

>  <Test duration>
48h

$$$$

  Mrv1808 07152009202D          

  8  8  0  0  0  0            999 V2000
    0.7530    0.4183    0.0000 C   0  0  0  0  0  0  0  0  0  0  0  0
    0.7530    1.2131    0.0000 C   0  0  0  0  0  0  0  0  0  0  0  0
    1.4641    0.0000    0.0000 C   0  0  0  0  0  0  0  0  0  0  0  0
    0.0000    0.0000    0.0000 F   0  0  0  0  0  0  0  0  0  0  0  0
    1.4641    1.6314    0.0000 C   0  0  0  0  0  0  0  0  0  0  0  0
    2.1752    0.4183    0.0000 C   0  0  0  0  0  0  0  0  0  0  0  0
    2.1752    1.2131    0.0000 C   0  0  0  0  0  0  0  0  0  0  0  0
    2.8863    1.6314    0.0000 O   0  0  0  0  0  0  0  0  0  0  0  0
  1  2  2  0  0  0  0
  3  1  1  0  0  0  0
  1  4  1  0  0  0  0
  2  5  1  0  0  0  0
  6  3  2  0  0  0  0
  5  7  2  0  0  0  0
  7  6  1  0  0  0  0
  7  8  1  0  0  0  0
M  END
>  <Name>
Phenol, 4-fluoro-

>  <IGC50>
3.02

>  <CAS>
371-41-5

>  <SET>
ws

>  <Species>
Tetrahymena pyriformis

>  <Test duration>
48h

$$$$

  Mrv1808 07152009202D          

 11 12  0  0  0  0            999 V2000
    2.8861    1.2548    0.0000 C   0  0  0  0  0  0  0  0  0  0  0  0
    3.5972    1.6731    0.0000 C   0  0  0  0  0  0  0  0  0  0  0  0
    2.1751    1.6731    0.0000 N   0  0  0  0  0  0  0  0  0  0  0  0
    2.8861    0.4183    0.0000 C   0  0  0  0  0  0  0  0  0  0  0  0
    1.4222    1.2548    0.0000 C   0  0  0  0  0  0  0  0  0  0  0  0
    2.1751    0.0000    0.0000 N   0  0  0  0  0  0  0  0  0  0  0  0
    1.4222    0.4183    0.0000 C   0  0  0  0  0  0  0  0  0  0  0  0
    0.7111    1.6731    0.0000 C   0  0  0  0  0  0  0  0  0  0  0  0
    0.7111    0.0000    0.0000 C   0  0  0  0  0  0  0  0  0  0  0  0
    0.0000    1.2548    0.0000 C   0  0  0  0  0  0  0  0  0  0  0  0
    0.0000    0.4183    0.0000 C   0  0  0  0  0  0  0  0  0  0  0  0
  1  2  1  0  0  0  0
  3  1  2  0  0  0  0
  1  4  1  0  0  0  0
  5  3  1  0  0  0  0
  4  6  2  0  0  0  0
  5  7  2  0  0  0  0
  8  5  1  0  0  0  0
  6  7  1  0  0  0  0
  7  9  1  0  0  0  0
 10  8  2  0  0  0  0
  9 11  2  0  0  0  0
 11 10  1  0  0  0  0
M  END
>  <Name>
Quinoxaline, 2-methyl-

>  <IGC50>
3.02

>  <CAS>
7251-61-8

>  <SET>
ws

>  <Species>
Tetrahymena pyriformis

>  <Test duration>
48h

$$$$

  Mrv1808 07152009203D          

  9  8  0  0  0  0            999 V2000
    6.6715    3.8086    1.0996 C   0  0  0  0  0  0  0  0  0  0  0  0
    5.3317    4.2126    1.4353 C   0  0  0  0  0  0  0  0  0  0  0  0
    7.0528    2.5120    1.8064 C   0  0  0  0  0  0  0  0  0  0  0  0
    4.2221    4.5481    1.7155 C   0  0  0  0  0  0  0  0  0  0  0  0
    8.4973    2.1373    1.5160 C   0  0  0  0  0  0  0  0  0  0  0  0
    2.8868    4.9541    2.0629 C   0  0  0  0  0  0  0  0  0  0  0  0
    8.8752    0.8357    2.1858 C   0  0  0  0  0  0  0  0  0  0  0  0
    1.8852    4.4800    1.0045 C   0  0  0  0  0  0  0  0  0  0  0  0
    0.6112    4.9269    1.4095 O   0  0  0  0  0  0  0  0  0  0  0  0
  1  2  1  0  0  0  0
  1  3  1  0  0  0  0
  2  4  3  0  0  0  0
  3  5  1  0  0  0  0
  4  6  1  0  0  0  0
  5  7  1  0  0  0  0
  6  8  1  0  0  0  0
  8  9  1  0  0  0  0
M  END
>  <Name>
3-Octyn-1-ol

>  <IGC50>
3.017

>  <CAS>
14916-80-4

>  <SET>
ws

>  <Species>
Tetrahymena pyriformis

>  <Test duration>
48h

$$$$

  Mrv1808 07152009202D          

 11 11  0  0  0  0            999 V2000
    1.4554    0.0000    0.0000 O   0  0  0  0  0  0  0  0  0  0  0  0
    2.1232   -0.4794    0.0000 C   0  0  0  0  0  0  0  0  0  0  0  0
    0.7876   -0.4794    0.0000 C   0  0  0  0  0  0  0  0  0  0  0  0
    1.8721   -1.2671    0.0000 C   0  0  0  0  0  0  0  0  0  0  0  0
    2.9108   -0.2283    0.0000 C   0  0  0  0  0  0  0  0  0  0  0  0
    1.0444   -1.2671    0.0000 C   0  0  0  0  0  0  0  0  0  0  0  0
    0.0000   -0.2283    0.0000 O   0  0  0  0  0  0  0  0  0  0  0  0
    3.5272   -0.7762    0.0000 C   0  0  0  0  0  0  0  0  0  0  0  0
    4.3148   -0.5308    0.0000 C   0  0  0  0  0  0  0  0  0  0  0  0
    4.9312   -1.0787    0.0000 C   0  0  0  0  0  0  0  0  0  0  0  0
    5.7075   -0.8276    0.0000 C   0  0  0  0  0  0  0  0  0  0  0  0
  1  2  1  0  0  0  0
  1  3  1  0  0  0  0
  2  4  1  0  0  0  0
  2  5  1  0  0  0  0
  3  6  1  0  0  0  0
  3  7  2  0  0  0  0
  4  6  1  0  0  0  0
  5  8  1  0  0  0  0
  8  9  1  0  0  0  0
  9 10  1  0  0  0  0
 10 11  1  0  0  0  0
M  END
>  <Name>
2(3H)-Furanone, dihydro-5-pentyl-

>  <IGC50>
3.014

>  <CAS>
104-61-0

>  <SET>
ws

>  <Species>
Tetrahymena pyriformis

>  <Test duration>
48h

$$$$

  Mrv1808 07152009202D          

  9  9  0  0  0  0            999 V2000
    1.2385   -1.4290    0.0000 C   0  0  0  0  0  0  0  0  0  0  0  0
    0.4128   -1.4290    0.0000 C   0  0  0  0  0  0  0  0  0  0  0  0
    1.6484   -0.7130    0.0000 C   0  0  0  0  0  0  0  0  0  0  0  0
    1.6484   -2.1420    0.0000 C   0  0  0  0  0  0  0  0  0  0  0  0
    0.0000   -2.1420    0.0000 O   0  0  0  0  0  0  0  0  0  0  0  0
    1.2385    0.0000    0.0000 C   0  0  0  0  0  0  0  0  0  0  0  0
    2.4740   -0.7130    0.0000 C   0  0  0  0  0  0  0  0  0  0  0  0
    2.4740   -2.1420    0.0000 C   0  0  0  0  0  0  0  0  0  0  0  0
    2.8868   -1.4290    0.0000 C   0  0  0  0  0  0  0  0  0  0  0  0
  1  2  1  0  0  0  0
  1  3  2  0  0  0  0
  1  4  1  0  0  0  0
  2  5  2  0  0  0  0
  3  6  1  0  0  0  0
  3  7  1  0  0  0  0
  8  4  2  0  0  0  0
  7  9  2  0  0  0  0
  9  8  1  0  0  0  0
M  END
>  <Name>
o-Tolualdehyde (8CI)

>  <IGC50>
3.011

>  <CAS>
529-20-4

>  <SET>
ws

>  <Species>
Tetrahymena pyriformis

>  <Test duration>
48h

$$$$

  Mrv1808 07152009202D          

 12 12  0  0  0  0            999 V2000
    5.0612    1.2548    0.0000 C   0  0  0  0  0  0  0  0  0  0  0  0
    4.3083    1.6731    0.0000 C   0  0  0  0  0  0  0  0  0  0  0  0
    3.5972    1.2548    0.0000 O   0  0  0  0  0  0  0  0  0  0  0  0
    2.8861    1.6731    0.0000 C   0  0  0  0  0  0  0  0  0  0  0  0
    2.8861    2.5097    0.0000 O   0  0  0  0  0  0  0  0  0  0  0  0
    2.1333    1.2548    0.0000 C   0  0  0  0  0  0  0  0  0  0  0  0
    1.4222    1.6731    0.0000 C   0  0  0  0  0  0  0  0  0  0  0  0
    2.1333    0.4183    0.0000 C   0  0  0  0  0  0  0  0  0  0  0  0
    0.7111    1.2548    0.0000 C   0  0  0  0  0  0  0  0  0  0  0  0
    1.4222    0.0000    0.0000 C   0  0  0  0  0  0  0  0  0  0  0  0
    0.7111    0.4183    0.0000 C   0  0  0  0  0  0  0  0  0  0  0  0
    0.0000    0.0000    0.0000 F   0  0  0  0  0  0  0  0  0  0  0  0
  1  2  1  0  0  0  0
  2  3  1  0  0  0  0
  3  4  1  0  0  0  0
  4  5  2  0  0  0  0
  4  6  1  0  0  0  0
  7  6  2  0  0  0  0
  6  8  1  0  0  0  0
  9  7  1  0  0  0  0
  8 10  2  0  0  0  0
 11  9  2  0  0  0  0
 10 11  1  0  0  0  0
 12 11  1  0  0  0  0
M  END
>  <Name>
ethyl 4-fluorobenzoate

>  <IGC50>
3.01

>  <CAS>
451-46-7

>  <SET>
ws

>  <Species>
Tetrahymena pyriformis

>  <Test duration>
48h

$$$$

  Mrv1808 07152009202D          

 10 10  0  0  0  0            999 V2000
    2.1450    1.2375    0.0000 C   0  0  0  0  0  0  0  0  0  0  0  0
    2.8463    1.6500    0.0000 C   0  0  0  0  0  0  0  0  0  0  0  0
    2.1450    0.4125    0.0000 C   0  0  0  0  0  0  0  0  0  0  0  0
    3.5888    1.2788    0.0000 C   0  0  0  0  0  0  0  0  0  0  0  0
    2.8463    0.0000    0.0000 C   0  0  0  0  0  0  0  0  0  0  0  0
    1.4438    0.0000    0.0000 O   0  0  0  0  0  0  0  0  0  0  0  0
    3.5888    0.4125    0.0000 C   0  0  0  0  0  0  0  0  0  0  0  0
    4.2900    1.6913    0.0000 O   0  0  0  0  0  0  0  0  0  0  0  0
    0.7013    0.4125    0.0000 C   0  0  0  0  0  0  0  0  0  0  0  0
    0.0000    0.0000    0.0000 C   0  0  0  0  0  0  0  0  0  0  0  0
  1  2  2  0  0  0  0
  3  1  1  0  0  0  0
  2  4  1  0  0  0  0
  5  3  2  0  0  0  0
  3  6  1  0  0  0  0
  4  7  2  0  0  0  0
  4  8  1  0  0  0  0
  7  5  1  0  0  0  0
  6  9  1  0  0  0  0
  9 10  1  0  0  0  0
M  END
>  <Name>
Phenol, 4-ethoxy-

>  <IGC50>
3.01

>  <CAS>
622-62-8

>  <SET>
ws

>  <Species>
Tetrahymena pyriformis

>  <Test duration>
48h

$$$$

  Mrv1808 07152009202D          

 10 10  0  0  0  0            999 V2000
    0.0000    2.2169    0.0000 N   0  0  0  0  0  0  0  0  0  0  0  0
    0.8366    2.2169    0.0000 C   0  0  0  0  0  0  0  0  0  0  0  0
    1.6731    2.2169    0.0000 C   0  0  0  0  0  0  0  0  0  0  0  0
    2.0915    1.4640    0.0000 C   0  0  0  0  0  0  0  0  0  0  0  0
    2.0915    2.9280    0.0000 C   0  0  0  0  0  0  0  0  0  0  0  0
    2.8862    1.4640    0.0000 C   0  0  0  0  0  0  0  0  0  0  0  0
    2.8862    2.9280    0.0000 C   0  0  0  0  0  0  0  0  0  0  0  0
    3.3045    0.7529    0.0000 O   0  0  0  0  0  0  0  0  0  0  0  0
    3.3045    2.2169    0.0000 C   0  0  0  0  0  0  0  0  0  0  0  0
    2.8862    0.0000    0.0000 C   0  0  0  0  0  0  0  0  0  0  0  0
  1  2  3  0  0  0  0
  2  3  1  0  0  0  0
  3  4  2  0  0  0  0
  5  3  1  0  0  0  0
  4  6  1  0  0  0  0
  7  5  2  0  0  0  0
  6  8  1  0  0  0  0
  6  9  2  0  0  0  0
  9  7  1  0  0  0  0
  8 10  1  0  0  0  0
M  END
>  <Name>
m-Anisonitrile (8CI)

>  <IGC50>
3.01

>  <CAS>
1527-89-5

>  <SET>
ws

>  <Species>
Tetrahymena pyriformis

>  <Test duration>
48h

$$$$

  Mrv1808 07152009203D          

 11 11  0  0  0  0            999 V2000
    5.8012    2.3507    0.9161 C   0  0  0  0  0  0  0  0  0  0  0  0
    4.4992    1.9427    1.1831 C   0  0  0  0  0  0  0  0  0  0  0  0
    6.1916    3.6579    1.1858 C   0  0  0  0  0  0  0  0  0  0  0  0
    3.5751    2.8398    1.7220 C   0  0  0  0  0  0  0  0  0  0  0  0
    5.2768    4.5564    1.7232 C   0  0  0  0  0  0  0  0  0  0  0  0
    3.9741    4.1505    1.9902 C   0  0  0  0  0  0  0  0  0  0  0  0
    2.1605    2.4171    2.0154 C   0  0  2  0  0  0  0  0  0  0  0  0
    2.1509    1.2895    3.0516 C   0  0  0  0  0  0  0  0  0  0  0  0
    1.4525    2.0090    0.7315 C   0  0  0  0  0  0  0  0  0  0  0  0
    0.7722    1.1318    3.6909 C   0  0  0  0  0  0  0  0  0  0  0  0
    0.8628    0.0937    4.6397 O   0  0  0  0  0  0  0  0  0  0  0  0
  1  2  2  0  0  0  0
  3  1  1  0  0  0  0
  2  4  1  0  0  0  0
  5  3  2  0  0  0  0
  4  6  2  0  0  0  0
  4  7  1  0  0  0  0
  6  5  1  0  0  0  0
  7  8  1  0  0  0  0
  7  9  1  0  0  0  0
  8 10  1  0  0  0  0
 10 11  1  0  0  0  0
M  END
>  <Name>
Benzenepropanol, gamma-methyl-

>  <IGC50>
3.01

>  <CAS>
2722-36-3

>  <SET>
ws

>  <Species>
Tetrahymena pyriformis

>  <Test duration>
48h

$$$$

  Mrv1808 07152009203D          

 10  9  0  0  0  0            999 V2000
    6.8867    1.8360    1.5931 C   0  0  0  0  0  0  0  0  0  0  0  0
    5.6636    1.0619    2.0293 C   0  0  0  0  0  0  0  0  0  0  0  0
    8.1011    0.9415    1.4080 C   0  0  0  0  0  0  0  0  0  0  0  0
    4.5036    1.7059    1.7058 O   0  0  0  0  0  0  0  0  0  0  0  0
    5.6080    0.0000    2.6174 O   0  0  0  0  0  0  0  0  0  0  0  0
    9.3114    1.7551    0.9751 C   0  0  0  0  0  0  0  0  0  0  0  0
    3.2626    1.1037    2.0758 C   0  0  0  0  0  0  0  0  0  0  0  0
   10.5478    0.8908    0.8753 C   0  0  0  0  0  0  0  0  0  0  0  0
    2.1628    2.0050    1.5206 C   0  0  0  0  0  0  0  0  0  0  0  0
    0.8023    1.4585    1.8897 C   0  0  0  0  0  0  0  0  0  0  0  0
  1  2  1  0  0  0  0
  1  3  1  0  0  0  0
  2  4  1  0  0  0  0
  2  5  2  0  0  0  0
  3  6  1  0  0  0  0
  4  7  1  0  0  0  0
  6  8  1  0  0  0  0
  7  9  1  0  0  0  0
  9 10  1  0  0  0  0
M  END
>  <Name>
Valeric acid, propyl ester (8CI)

>  <IGC50>
3.009

>  <CAS>
141-06-0

>  <SET>
ws

>  <Species>
Tetrahymena pyriformis

>  <Test duration>
48h

$$$$

  Mrv1808 07152009202D          

  8  7  0  0  0  0            999 V2000
    0.0000    0.0000    0.0000 Br  0  0  0  0  0  0  0  0  0  0  0  0
    0.7529    0.4183    0.0000 C   0  0  0  0  0  0  0  0  0  0  0  0
    1.4640    0.0000    0.0000 C   0  0  0  0  0  0  0  0  0  0  0  0
    2.1750    0.4183    0.0000 C   0  0  0  0  0  0  0  0  0  0  0  0
    2.9278    0.0000    0.0000 C   0  0  0  0  0  0  0  0  0  0  0  0
    3.6389    0.4183    0.0000 C   0  0  0  0  0  0  0  0  0  0  0  0
    4.3082    0.0000    0.0000 C   0  0  0  0  0  0  0  0  0  0  0  0
    5.0611    0.4183    0.0000 O   0  0  0  0  0  0  0  0  0  0  0  0
  1  2  1  0  0  0  0
  2  3  1  0  0  0  0
  3  4  1  0  0  0  0
  4  5  1  0  0  0  0
  5  6  1  0  0  0  0
  7  6  1  0  0  0  0
  8  7  1  0  0  0  0
M  END
>  <Name>
1-Hexanol, 6-bromo-

>  <IGC50>
3.007

>  <CAS>
4286-55-9

>  <SET>
ws

>  <Species>
Tetrahymena pyriformis

>  <Test duration>
48h

$$$$

  Mrv1808 07152009203D          

  6  5  0  0  0  0            999 V2000
   -2.4483   -0.7846   -1.5705 Br  0  0  0  0  0  0  0  0  0  0  0  0
   -2.1074    0.5325   -0.1695 C   0  0  1  0  0  0  0  0  0  0  0  0
   -0.8915    0.1040    0.6293 C   0  0  0  0  0  0  0  0  0  0  0  0
   -1.8982    1.8453   -0.8940 C   0  0  0  0  0  0  0  0  0  0  0  0
   -0.7906    2.2742   -1.2094 O   0  0  0  0  0  0  0  0  0  0  0  0
   -3.0762    2.5022   -1.1784 N   0  0  0  0  0  0  0  0  0  0  0  0
  1  2  1  0  0  0  0
  2  3  1  0  0  0  0
  2  4  1  0  0  0  0
  5  4  2  0  0  0  0
  6  4  1  0  0  0  0
M  END
>  <Name>
Propanamide, 2-bromo- (9CI)

>  <IGC50>
3.004

>  <CAS>
5875-25-2

>  <SET>
ws

>  <Species>
Tetrahymena pyriformis

>  <Test duration>
48h

$$$$

  Mrv1808 07152009202D          

  9  8  0  0  0  0            999 V2000
    0.0000    0.0000    0.0000 C   0  0  0  0  0  0  0  0  0  0  0  0
    0.7028   -0.4157    0.0000 C   0  0  0  0  0  0  0  0  0  0  0  0
    1.4154    0.0000    0.0000 C   0  0  0  0  0  0  0  0  0  0  0  0
    0.7028   -1.2273    0.0000 O   0  0  0  0  0  0  0  0  0  0  0  0
    2.1280   -0.4157    0.0000 C   0  0  0  0  0  0  0  0  0  0  0  0
    2.8407    0.0000    0.0000 C   0  0  0  0  0  0  0  0  0  0  0  0
    3.5336   -0.4157    0.0000 C   0  0  0  0  0  0  0  0  0  0  0  0
    4.2462    0.0000    0.0000 C   0  0  0  0  0  0  0  0  0  0  0  0
    4.9489   -0.4157    0.0000 C   0  0  0  0  0  0  0  0  0  0  0  0
  1  2  1  0  0  0  0
  2  3  1  0  0  0  0
  2  4  1  0  0  0  0
  3  5  1  0  0  0  0
  5  6  1  0  0  0  0
  6  7  1  0  0  0  0
  7  8  1  0  0  0  0
  8  9  1  0  0  0  0
M  END
>  <Name>
(1)-Octan-2-ol

>  <IGC50>
3

>  <CAS>
123-96-6

>  <SET>
ws

>  <Species>
Tetrahymena pyriformis

>  <Test duration>
48h

$$$$

  Mrv1808 07152009202D          

  7  7  0  0  0  0            999 V2000
    2.5099    0.0000    0.0000 O   0  0  0  0  0  0  0  0  0  0  0  0
    2.0916    0.7136    0.0000 C   0  0  0  0  0  0  0  0  0  0  0  0
    1.2795    0.7136    0.0000 C   0  0  0  0  0  0  0  0  0  0  0  0
    0.7874    0.0492    0.0000 C   0  0  0  0  0  0  0  0  0  0  0  0
    0.7874    1.3534    0.0000 C   0  0  0  0  0  0  0  0  0  0  0  0
    0.0000    0.2953    0.0000 C   0  0  0  0  0  0  0  0  0  0  0  0
    0.0000    1.1073    0.0000 O   0  0  0  0  0  0  0  0  0  0  0  0
  1  2  2  0  0  0  0
  2  3  1  0  0  0  0
  3  4  1  0  0  0  0
  3  5  2  0  0  0  0
  4  6  2  0  0  0  0
  7  5  1  0  0  0  0
  6  7  1  0  0  0  0
M  END
>  <Name>
furan-3-carbaldehyde

>  <IGC50>
3

>  <CAS>
498-60-2

>  <SET>
ws

>  <Species>
Tetrahymena pyriformis

>  <Test duration>
48h

$$$$

  Mrv1808 07152009202D          

  9  9  0  0  0  0            999 V2000
    0.7013    1.2375    0.0000 C   0  0  0  0  0  0  0  0  0  0  0  0
    1.4438    1.6500    0.0000 C   0  0  0  0  0  0  0  0  0  0  0  0
    0.7013    0.4125    0.0000 C   0  0  0  0  0  0  0  0  0  0  0  0
    2.1450    1.2375    0.0000 C   0  0  0  0  0  0  0  0  0  0  0  0
    1.4438    0.0000    0.0000 C   0  0  0  0  0  0  0  0  0  0  0  0
    0.0000    0.0000    0.0000 Cl  0  0  0  0  0  0  0  0  0  0  0  0
    2.1450    0.4125    0.0000 C   0  0  0  0  0  0  0  0  0  0  0  0
    2.8462    1.6500    0.0000 C   0  0  0  0  0  0  0  0  0  0  0  0
    3.5887    2.0212    0.0000 N   0  0  0  0  0  0  0  0  0  0  0  0
  1  2  2  0  0  0  0
  3  1  1  0  0  0  0
  2  4  1  0  0  0  0
  5  3  2  0  0  0  0
  3  6  1  0  0  0  0
  4  7  2  0  0  0  0
  4  8  1  0  0  0  0
  7  5  1  0  0  0  0
  8  9  3  0  0  0  0
M  END
>  <Name>
4-chlorobenzonitrile

>  <IGC50>
3

>  <CAS>
623-03-0

>  <SET>
ws

>  <Species>
Tetrahymena pyriformis

>  <Test duration>
48h

$$$$

  Mrv1808 07152009202D          

  8  7  0  0  0  0            999 V2000
    5.0049    0.0000    0.0000 C   0  0  0  0  0  0  0  0  0  0  0  0
    4.2892   -0.4104    0.0000 C   0  0  0  0  0  0  0  0  0  0  0  0
    3.5735    0.0000    0.0000 C   0  0  0  0  0  0  0  0  0  0  0  0
    2.8578   -0.4104    0.0000 C   0  0  0  0  0  0  0  0  0  0  0  0
    2.1471    0.0000    0.0000 C   0  0  0  0  0  0  0  0  0  0  0  0
    1.4314   -0.4104    0.0000 C   0  0  0  0  0  0  0  0  0  0  0  0
    0.7157    0.0000    0.0000 C   0  0  0  0  0  0  0  0  0  0  0  0
    0.0000   -0.4104    0.0000 O   0  0  0  0  0  0  0  0  0  0  0  0
  1  2  1  0  0  0  0
  2  3  1  0  0  0  0
  3  4  1  0  0  0  0
  4  5  1  0  0  0  0
  5  6  1  0  0  0  0
  6  7  1  0  0  0  0
  7  8  2  0  0  0  0
M  END
>  <Name>
N-Heptanal

>  <IGC50>
2.998

>  <CAS>
111-71-7

>  <SET>
ws

>  <Species>
Tetrahymena pyriformis

>  <Test duration>
48h

$$$$

  Mrv1808 07152009202D          

  7  7  0  0  0  0            999 V2000
    0.7160   -0.8250    0.0000 C   0  0  0  0  0  0  0  0  0  0  0  0
    1.4320   -1.2437    0.0000 C   0  0  0  0  0  0  0  0  0  0  0  0
    0.0000   -1.2437    0.0000 C   0  0  0  0  0  0  0  0  0  0  0  0
    0.7160    0.0000    0.0000 S   0  0  0  0  0  0  0  0  0  0  0  0
    1.4320   -2.0687    0.0000 C   0  0  0  0  0  0  0  0  0  0  0  0
    0.0000   -2.0687    0.0000 C   0  0  0  0  0  0  0  0  0  0  0  0
    0.7160   -2.4775    0.0000 C   0  0  0  0  0  0  0  0  0  0  0  0
  1  2  1  0  0  0  0
  1  3  1  0  0  0  0
  1  4  1  0  0  0  0
  2  5  1  0  0  0  0
  6  3  1  0  0  0  0
  5  7  1  0  0  0  0
  7  6  1  0  0  0  0
M  END
>  <Name>
Cyclohexanethiol

>  <IGC50>
2.996

>  <CAS>
1569-69-3

>  <SET>
ws

>  <Species>
Tetrahymena pyriformis

>  <Test duration>
48h

$$$$

  Mrv1808 07152009202D          

 10  9  0  0  0  0            999 V2000
    3.5736    0.0000    0.0000 C   0  0  0  0  0  0  0  0  0  0  0  0
    4.2893   -0.4154    0.0000 C   0  0  0  0  0  0  0  0  0  0  0  0
    5.0050    0.0000    0.0000 O   0  0  0  0  0  0  0  0  0  0  0  0
    4.2893   -1.2413    0.0000 O   0  0  0  0  0  0  0  0  0  0  0  0
    3.5736   -1.6517    0.0000 C   0  0  0  0  0  0  0  0  0  0  0  0
    2.8579   -1.2413    0.0000 C   0  0  0  0  0  0  0  0  0  0  0  0
    2.1472   -1.6517    0.0000 C   0  0  0  0  0  0  0  0  0  0  0  0
    1.4315   -1.2413    0.0000 C   0  0  0  0  0  0  0  0  0  0  0  0
    0.7157   -1.6517    0.0000 C   0  0  0  0  0  0  0  0  0  0  0  0
    0.0000   -1.2413    0.0000 C   0  0  0  0  0  0  0  0  0  0  0  0
  1  2  1  0  0  0  0
  2  3  2  0  0  0  0
  2  4  1  0  0  0  0
  4  5  1  0  0  0  0
  5  6  1  0  0  0  0
  6  7  1  0  0  0  0
  7  8  1  0  0  0  0
  8  9  1  0  0  0  0
  9 10  1  0  0  0  0
M  END
>  <Name>
Acetic acid, hexyl ester

>  <IGC50>
2.991

>  <CAS>
142-92-7

>  <SET>
ws

>  <Species>
Tetrahymena pyriformis

>  <Test duration>
48h

$$$$

  Mrv1808 07152009203D          

 11 11  0  0  0  0            999 V2000
   -0.7433    0.6990   -0.0003 C   0  0  0  0  0  0  0  0  0  0  0  0
    0.6597    0.2046   -0.0001 C   0  0  0  0  0  0  0  0  0  0  0  0
   -1.1090    1.8608   -0.0009 O   0  0  0  0  0  0  0  0  0  0  0  0
   -1.6902   -0.2836    0.0003 O   0  0  0  0  0  0  0  0  0  0  0  0
    1.6948    1.1450    0.0005 C   0  0  0  0  0  0  0  0  0  0  0  0
    0.9651   -1.1590   -0.0006 C   0  0  0  0  0  0  0  0  0  0  0  0
   -3.0672    0.0999    0.0004 C   0  0  0  0  0  0  0  0  0  0  0  0
    3.0192    0.7230    0.0007 C   0  0  0  0  0  0  0  0  0  0  0  0
    2.2926   -1.5726   -0.0005 C   0  0  0  0  0  0  0  0  0  0  0  0
   -3.8683   -1.1880    0.0003 C   0  0  0  0  0  0  0  0  0  0  0  0
    3.3198   -0.6349    0.0002 C   0  0  0  0  0  0  0  0  0  0  0  0
  1  2  1  0  0  0  0
  1  3  2  0  0  0  0
  1  4  1  0  0  0  0
  2  5  1  0  0  0  0
  2  6  2  0  0  0  0
  4  7  1  0  0  0  0
  5  8  2  0  0  0  0
  9  6  1  0  0  0  0
  7 10  1  0  0  0  0
  8 11  1  0  0  0  0
 11  9  2  0  0  0  0
M  END
>  <Name>
Benzoic acid, ethyl ester

>  <IGC50>
2.99

>  <CAS>
93-89-0

>  <SET>
ws

>  <Species>
Tetrahymena pyriformis

>  <Test duration>
48h

$$$$

  Mrv1808 07152009202D          

  9  9  0  0  0  0            999 V2000
    0.0000    0.0000    0.0000 N   0  0  0  0  0  0  0  0  0  0  0  0
    0.4183    0.7111    0.0000 C   0  0  0  0  0  0  0  0  0  0  0  0
    1.2548    0.7111    0.0000 C   0  0  0  0  0  0  0  0  0  0  0  0
    1.6731    1.4222    0.0000 C   0  0  0  0  0  0  0  0  0  0  0  0
    1.6731    0.0000    0.0000 C   0  0  0  0  0  0  0  0  0  0  0  0
    2.5097    1.4222    0.0000 C   0  0  0  0  0  0  0  0  0  0  0  0
    2.5097    0.0000    0.0000 C   0  0  0  0  0  0  0  0  0  0  0  0
    2.9280    0.7111    0.0000 C   0  0  0  0  0  0  0  0  0  0  0  0
    3.7646    0.7111    0.0000 C   0  0  0  0  0  0  0  0  0  0  0  0
  1  2  1  0  0  0  0
  2  3  1  0  0  0  0
  4  3  2  0  0  0  0
  3  5  1  0  0  0  0
  6  4  1  0  0  0  0
  5  7  2  0  0  0  0
  8  6  2  0  0  0  0
  7  8  1  0  0  0  0
  8  9  1  0  0  0  0
M  END
>  <Name>
Benzylamine, p-methyl- (8CI)

>  <IGC50>
2.99

>  <CAS>
104-84-7

>  <SET>
ws

>  <Species>
Tetrahymena pyriformis

>  <Test duration>
48h

$$$$

  Mrv1808 07152009202D          

 10 10  0  0  0  0            999 V2000
    0.0000    1.5896    0.0000 C   0  0  0  0  0  0  0  0  0  0  0  0
    0.7111    1.1713    0.0000 C   0  0  0  0  0  0  0  0  0  0  0  0
    0.7111    0.4183    0.0000 S   0  0  0  0  0  0  0  0  0  0  0  0
    1.4641    1.5896    0.0000 N   0  0  0  0  0  0  0  0  0  0  0  0
    2.1752    1.1713    0.0000 C   0  0  0  0  0  0  0  0  0  0  0  0
    2.8863    1.5896    0.0000 C   0  0  0  0  0  0  0  0  0  0  0  0
    2.1752    0.4183    0.0000 C   0  0  0  0  0  0  0  0  0  0  0  0
    3.5975    1.1713    0.0000 C   0  0  0  0  0  0  0  0  0  0  0  0
    2.8863    0.0000    0.0000 C   0  0  0  0  0  0  0  0  0  0  0  0
    3.5975    0.4183    0.0000 C   0  0  0  0  0  0  0  0  0  0  0  0
  1  2  1  0  0  0  0
  2  3  2  0  0  0  0
  2  4  1  0  0  0  0
  4  5  1  0  0  0  0
  5  6  2  0  0  0  0
  7  5  1  0  0  0  0
  6  8  1  0  0  0  0
  9  7  2  0  0  0  0
  8 10  2  0  0  0  0
 10  9  1  0  0  0  0
M  END
>  <Name>
Ethanethioamide, N-phenyl-

>  <IGC50>
2.99

>  <CAS>
637-53-6

>  <SET>
ws

>  <Species>
Tetrahymena pyriformis

>  <Test duration>
48h

$$$$

  Mrv1808 07152009202D          

  8  7  0  0  0  0            999 V2000
    0.0000    0.8366    0.0000 C   0  0  0  0  0  0  0  0  0  0  0  0
    0.7111    1.2548    0.0000 C   0  0  0  0  0  0  0  0  0  0  0  0
    1.4640    0.8366    0.0000 C   0  0  0  0  0  0  0  0  0  0  0  0
    2.1751    1.2548    0.0000 C   0  0  0  0  0  0  0  0  0  0  0  0
    1.4640    0.0000    0.0000 O   0  0  0  0  0  0  0  0  0  0  0  0
    2.8443    0.8366    0.0000 C   0  0  0  0  0  0  0  0  0  0  0  0
    2.1751    2.0914    0.0000 O   0  0  0  0  0  0  0  0  0  0  0  0
    3.5972    1.2548    0.0000 C   0  0  0  0  0  0  0  0  0  0  0  0
  1  2  1  0  0  0  0
  2  3  1  0  0  0  0
  3  4  1  0  0  0  0
  3  5  2  0  0  0  0
  4  6  1  0  0  0  0
  4  7  2  0  0  0  0
  6  8  1  0  0  0  0
M  END
>  <Name>
3,4-Hexanedione

>  <IGC50>
2.99

>  <CAS>
4437-51-8

>  <SET>
ws

>  <Species>
Tetrahymena pyriformis

>  <Test duration>
48h

$$$$

  Mrv1808 07152009203D          

 11 11  0  0  0  0            999 V2000
   -3.0106    0.4128   -0.0006 O   0  0  0  0  0  0  0  0  0  0  0  0
   -1.6455    0.2935    0.0005 C   0  0  0  0  0  0  0  0  0  0  0  0
   -3.7590   -0.7971   -0.0002 C   0  0  0  0  0  0  0  0  0  0  0  0
   -1.1400   -0.9604    0.0004 N   0  0  0  0  0  0  0  0  0  0  0  0
   -0.8708    1.4422    0.0003 C   0  0  0  0  0  0  0  0  0  0  0  0
    0.2080   -1.0642    0.0001 C   0  0  0  0  0  0  0  0  0  0  0  0
    0.5119    1.2947    0.0000 C   0  0  0  0  0  0  0  0  0  0  0  0
    1.0695    0.0210   -0.0002 C   0  0  0  0  0  0  0  0  0  0  0  0
    2.4751   -0.1617   -0.0002 N   0  3  0  0  0  0  0  0  0  0  0  0
    3.2221    0.8481   -0.0001 O   0  5  0  0  0  0  0  0  0  0  0  0
    2.9393   -1.3289    0.0000 O   0  0  0  0  0  0  0  0  0  0  0  0
  1  2  1  0  0  0  0
  1  3  1  0  0  0  0
  4  2  2  0  0  0  0
  2  5  1  0  0  0  0
  4  6  1  0  0  0  0
  7  5  2  0  0  0  0
  8  6  2  0  0  0  0
  8  7  1  0  0  0  0
  9  8  1  0  0  0  0
 10  9  1  0  0  0  0
 11  9  2  0  0  0  0
M  CHG  2   9   1  10  -1
M  END
>  <Name>
2-methoxy-5-nitropyridine

>  <IGC50>
2.99

>  <CAS>
5446-92-4

>  <SET>
ws

>  <Species>
Tetrahymena pyriformis

>  <Test duration>
48h

$$$$

  Mrv1808 07152009202D          

  8  8  0  0  0  0            999 V2000
    1.2388   -2.1455    0.0000 N   0  0  0  0  0  0  0  0  0  0  0  0
    0.8250   -1.4295    0.0000 C   0  0  0  0  0  0  0  0  0  0  0  0
    2.0638   -2.1455    0.0000 C   0  0  0  0  0  0  0  0  0  0  0  0
    0.0000   -1.4295    0.0000 Cl  0  0  0  0  0  0  0  0  0  0  0  0
    1.2388   -0.7160    0.0000 C   0  0  0  0  0  0  0  0  0  0  0  0
    2.4775   -1.4295    0.0000 C   0  0  0  0  0  0  0  0  0  0  0  0
    0.8250    0.0000    0.0000 O   0  0  0  0  0  0  0  0  0  0  0  0
    2.0638   -0.7160    0.0000 C   0  0  0  0  0  0  0  0  0  0  0  0
  1  2  2  0  0  0  0
  1  3  1  0  0  0  0
  2  4  1  0  0  0  0
  2  5  1  0  0  0  0
  6  3  2  0  0  0  0
  5  7  1  0  0  0  0
  5  8  2  0  0  0  0
  8  6  1  0  0  0  0
M  END
>  <Name>
3-Pyridinol, 2-chloro-

>  <IGC50>
2.99

>  <CAS>
6636-78-8

>  <SET>
ws

>  <Species>
Tetrahymena pyriformis

>  <Test duration>
48h

$$$$

  Mrv1808 07152009203D          

 10 10  0  0  0  0            999 V2000
   -2.2691    1.4179   -0.0005 O   0  5  0  0  0  0  0  0  0  0  0  0
   -1.7030    0.2988    0.0001 N   0  3  0  0  0  0  0  0  0  0  0  0
   -2.3493   -0.7759   -0.0001 O   0  0  0  0  0  0  0  0  0  0  0  0
   -0.2825    0.2469    0.0006 C   0  0  0  0  0  0  0  0  0  0  0  0
    0.4197   -0.9475    0.0000 C   0  0  0  0  0  0  0  0  0  0  0  0
    0.4470    1.4306    0.0004 C   0  0  0  0  0  0  0  0  0  0  0  0
    1.7689   -1.0323   -0.0002 N   0  0  0  0  0  0  0  0  0  0  0  0
   -0.3126   -2.1617    0.0001 N   0  0  0  0  0  0  0  0  0  0  0  0
    1.8368    1.3842   -0.0001 C   0  0  0  0  0  0  0  0  0  0  0  0
    2.4441    0.1389   -0.0003 C   0  0  0  0  0  0  0  0  0  0  0  0
  1  2  1  0  0  0  0
  3  2  2  0  0  0  0
  2  4  1  0  0  0  0
  4  5  2  0  0  0  0
  4  6  1  0  0  0  0
  7  5  1  0  0  0  0
  8  5  1  0  0  0  0
  6  9  2  0  0  0  0
  7 10  2  0  0  0  0
  9 10  1  0  0  0  0
M  CHG  2   1  -1   2   1
M  END
>  <Name>
3-nitropyridin-2-amine

>  <IGC50>
2.99

>  <CAS>
4214-75-9

>  <SET>
ws

>  <Species>
Tetrahymena pyriformis

>  <Test duration>
48h

$$$$

  Mrv1808 07152009202D          

  5  4  0  0  0  0            999 V2000
    0.8250   -1.6500    0.0000 Cl  0  0  0  0  0  0  0  0  0  0  0  0
    0.8250   -0.8250    0.0000 C   0  0  0  0  0  0  0  0  0  0  0  0
    0.0000   -0.8250    0.0000 Cl  0  0  0  0  0  0  0  0  0  0  0  0
    0.8250    0.0000    0.0000 Cl  0  0  0  0  0  0  0  0  0  0  0  0
    1.6500   -0.8250    0.0000 Cl  0  0  0  0  0  0  0  0  0  0  0  0
  1  2  1  0  0  0  0
  2  3  1  0  0  0  0
  2  4  1  0  0  0  0
  2  5  1  0  0  0  0
M  END
>  <Name>
Methane, tetrachloro-

>  <IGC50>
2.98

>  <CAS>
56-23-5

>  <SET>
ws

>  <Species>
Tetrahymena pyriformis

>  <Test duration>
48h

$$$$

  Mrv1808 07152009202D          

  8  8  0  0  0  0            999 V2000
    0.0000    0.0000    0.0000 C   0  0  0  0  0  0  0  0  0  0  0  0
    0.4125   -0.7154    0.0000 C   0  0  0  0  0  0  0  0  0  0  0  0
    1.2375   -0.7154    0.0000 C   0  0  0  0  0  0  0  0  0  0  0  0
    1.6471    0.0000    0.0000 C   0  0  0  0  0  0  0  0  0  0  0  0
    1.6471   -1.4279    0.0000 C   0  0  0  0  0  0  0  0  0  0  0  0
    2.4721    0.0000    0.0000 C   0  0  0  0  0  0  0  0  0  0  0  0
    2.4721   -1.4279    0.0000 C   0  0  0  0  0  0  0  0  0  0  0  0
    2.8846   -0.7154    0.0000 C   0  0  0  0  0  0  0  0  0  0  0  0
  1  2  2  0  0  0  0
  2  3  1  0  0  0  0
  3  4  2  0  0  0  0
  3  5  1  0  0  0  0
  4  6  1  0  0  0  0
  7  5  2  0  0  0  0
  6  8  2  0  0  0  0
  8  7  1  0  0  0  0
M  END
>  <Name>
Benzene, ethenyl-

>  <IGC50>
2.98

>  <CAS>
100-42-5

>  <SET>
ws

>  <Species>
Tetrahymena pyriformis

>  <Test duration>
48h

$$$$

  Mrv1808 07152009202D          

 12 12  0  0  0  0            999 V2000
    2.8572    0.0000    0.0000 N   0  0  0  0  0  0  0  0  0  0  0  0
    2.1428   -0.4143    0.0000 C   0  0  0  0  0  0  0  0  0  0  0  0
    2.1428   -1.2393    0.0000 C   0  0  0  0  0  0  0  0  0  0  0  0
    1.4285    0.0000    0.0000 C   0  0  0  0  0  0  0  0  0  0  0  0
    2.8572   -1.6500    0.0000 C   0  0  0  0  0  0  0  0  0  0  0  0
    1.4285   -1.6500    0.0000 C   0  0  0  0  0  0  0  0  0  0  0  0
    0.7143   -0.4143    0.0000 C   0  0  0  0  0  0  0  0  0  0  0  0
    3.5714   -2.0607    0.0000 F   0  0  0  0  0  0  0  0  0  0  0  0
    2.4464   -2.3643    0.0000 F   0  0  0  0  0  0  0  0  0  0  0  0
    3.2678   -0.9357    0.0000 F   0  0  0  0  0  0  0  0  0  0  0  0
    0.7143   -1.2393    0.0000 C   0  0  0  0  0  0  0  0  0  0  0  0
    0.0000   -1.6500    0.0000 F   0  0  0  0  0  0  0  0  0  0  0  0
  1  2  1  0  0  0  0
  2  3  2  0  0  0  0
  2  4  1  0  0  0  0
  3  5  1  0  0  0  0
  3  6  1  0  0  0  0
  7  4  2  0  0  0  0
  5  8  1  0  0  0  0
  5  9  1  0  0  0  0
  5 10  1  0  0  0  0
  6 11  2  0  0  0  0
 11  7  1  0  0  0  0
 11 12  1  0  0  0  0
M  END
>  <Name>
alpha,alpha,alpha,4-Tetrafluoro-o-toluidine

>  <IGC50>
2.98

>  <CAS>
393-39-5

>  <SET>
ws

>  <Species>
Tetrahymena pyriformis

>  <Test duration>
48h

$$$$

  Mrv1808 07152009202D          

 14 14  0  0  0  0            999 V2000
    2.8051    2.1038    0.0000 C   0  0  0  0  0  0  0  0  0  0  0  0
    2.0626    2.1038    0.0000 C   0  0  0  0  0  0  0  0  0  0  0  0
    3.2590    2.8464    0.0000 C   0  0  0  0  0  0  0  0  0  0  0  0
    1.6501    2.8464    0.0000 C   0  0  0  0  0  0  0  0  0  0  0  0
    1.6501    1.4438    0.0000 C   0  0  0  0  0  0  0  0  0  0  0  0
    2.8051    3.5477    0.0000 C   0  0  0  0  0  0  0  0  0  0  0  0
    2.0213    3.5477    0.0000 C   0  0  0  0  0  0  0  0  0  0  0  0
    2.0626    0.7425    0.0000 C   0  0  0  0  0  0  0  0  0  0  0  0
    0.8251    1.4438    0.0000 C   0  0  0  0  0  0  0  0  0  0  0  0
    2.8876    0.7425    0.0000 O   0  0  0  0  0  0  0  0  0  0  0  0
    1.6914    0.0000    0.0000 O   0  0  0  0  0  0  0  0  0  0  0  0
    0.0000    1.4438    0.0000 N   0  0  0  0  0  0  0  0  0  0  0  0
    3.2590    0.0000    0.0000 C   0  0  0  0  0  0  0  0  0  0  0  0
    4.1252    0.0000    0.0000 C   0  0  0  0  0  0  0  0  0  0  0  0
  2  1  2  0  0  0  0
  1  3  1  0  0  0  0
  4  2  1  0  0  0  0
  2  5  1  0  0  0  0
  3  6  2  0  0  0  0
  7  4  2  0  0  0  0
  5  8  1  0  0  0  0
  5  9  1  0  0  0  0
  6  7  1  0  0  0  0
 10  8  1  0  0  0  0
  8 11  2  0  0  0  0
  9 12  3  0  0  0  0
 13 10  1  0  0  0  0
 14 13  1  0  0  0  0
M  END
>  <Name>
Benzeneacetic acid, alpha-cyano-, ethyl ester

>  <IGC50>
2.98

>  <CAS>
4553-07-5

>  <SET>
ws

>  <Species>
Tetrahymena pyriformis

>  <Test duration>
48h

$$$$

  Mrv1808 07152009202D          

 10 10  0  0  0  0            999 V2000
    2.5163    2.8463    0.0000 C   0  0  0  0  0  0  0  0  0  0  0  0
    2.9288    2.1038    0.0000 C   0  0  0  0  0  0  0  0  0  0  0  0
    1.6913    2.8463    0.0000 C   0  0  0  0  0  0  0  0  0  0  0  0
    2.5163    1.4025    0.0000 C   0  0  0  0  0  0  0  0  0  0  0  0
    1.2788    2.1038    0.0000 C   0  0  0  0  0  0  0  0  0  0  0  0
    1.6913    1.4025    0.0000 C   0  0  0  0  0  0  0  0  0  0  0  0
    2.9288    0.7013    0.0000 C   0  0  0  0  0  0  0  0  0  0  0  0
    0.4538    2.1038    0.0000 C   0  0  0  0  0  0  0  0  0  0  0  0
    3.3000    0.0000    0.0000 N   0  0  0  0  0  0  0  0  0  0  0  0
    0.0000    1.4438    0.0000 O   0  0  0  0  0  0  0  0  0  0  0  0
  2  1  2  0  0  0  0
  1  3  1  0  0  0  0
  4  2  1  0  0  0  0
  3  5  2  0  0  0  0
  6  4  2  0  0  0  0
  4  7  1  0  0  0  0
  5  6  1  0  0  0  0
  5  8  1  0  0  0  0
  7  9  3  0  0  0  0
  8 10  2  0  0  0  0
M  END
>  <Name>
m-Formylbenzonitrile

>  <IGC50>
2.98

>  <CAS>
24964-64-5

>  <SET>
ws

>  <Species>
Tetrahymena pyriformis

>  <Test duration>
48h

$$$$

  Mrv1808 07152009202D          

  7  7  0  0  0  0            999 V2000
    0.0000   -0.9928    0.0000 O   0  0  0  0  0  0  0  0  0  0  0  0
    0.7138   -1.4058    0.0000 C   0  0  0  0  0  0  0  0  0  0  0  0
    1.4304   -0.9928    0.0000 C   0  0  0  0  0  0  0  0  0  0  0  0
    1.5152   -0.1723    0.0000 C   0  0  0  0  0  0  0  0  0  0  0  0
    2.1825   -1.3292    0.0000 O   0  0  0  0  0  0  0  0  0  0  0  0
    2.3220    0.0000    0.0000 C   0  0  0  0  0  0  0  0  0  0  0  0
    2.7350   -0.7166    0.0000 C   0  0  0  0  0  0  0  0  0  0  0  0
  1  2  2  0  0  0  0
  2  3  1  0  0  0  0
  3  4  2  0  0  0  0
  3  5  1  0  0  0  0
  4  6  1  0  0  0  0
  7  5  1  0  0  0  0
  6  7  2  0  0  0  0
M  END
>  <Name>
2-Furancarboxaldehyde

>  <IGC50>
2.98

>  <CAS>
98-01-1

>  <SET>
ws

>  <Species>
Tetrahymena pyriformis

>  <Test duration>
48h

$$$$

  Mrv1808 07152009202D          

  6  5  0  0  0  0            999 V2000
    0.0000   -0.4113    0.0000 C   0  0  0  0  0  0  0  0  0  0  0  0
    0.7152    0.0000    0.0000 C   0  0  0  0  0  0  0  0  0  0  0  0
    1.4304   -0.4113    0.0000 C   0  0  0  0  0  0  0  0  0  0  0  0
    2.1456    0.0000    0.0000 C   0  0  0  0  0  0  0  0  0  0  0  0
    2.8607   -0.4113    0.0000 C   0  0  0  0  0  0  0  0  0  0  0  0
    3.5759    0.0000    0.0000 O   0  0  0  0  0  0  0  0  0  0  0  0
  1  2  1  0  0  0  0
  2  3  1  0  0  0  0
  3  4  1  0  0  0  0
  4  5  1  0  0  0  0
  5  6  2  0  0  0  0
M  END
>  <Name>
Valeraldehyde

>  <IGC50>
2.978

>  <CAS>
110-62-3

>  <SET>
ws

>  <Species>
Tetrahymena pyriformis

>  <Test duration>
48h

$$$$

  Mrv1808 07152009202D          

  9  8  0  0  0  0            999 V2000
    0.0000    0.4183    0.0000 Br  0  0  0  0  0  0  0  0  0  0  0  0
    0.7112    0.0000    0.0000 C   0  0  0  0  0  0  0  0  0  0  0  0
    1.4223    0.4183    0.0000 C   0  0  0  0  0  0  0  0  0  0  0  0
    2.1753    0.0000    0.0000 C   0  0  0  0  0  0  0  0  0  0  0  0
    2.8446    0.4183    0.0000 C   0  0  0  0  0  0  0  0  0  0  0  0
    3.5558    0.0000    0.0000 O   0  0  0  0  0  0  0  0  0  0  0  0
    2.8446    1.2131    0.0000 O   0  0  0  0  0  0  0  0  0  0  0  0
    4.3087    0.4183    0.0000 C   0  0  0  0  0  0  0  0  0  0  0  0
    5.0198    0.0000    0.0000 C   0  0  0  0  0  0  0  0  0  0  0  0
  1  2  1  0  0  0  0
  2  3  1  0  0  0  0
  4  3  1  0  0  0  0
  5  4  1  0  0  0  0
  5  6  1  0  0  0  0
  5  7  2  0  0  0  0
  6  8  1  0  0  0  0
  9  8  1  0  0  0  0
M  END
>  <Name>
Butanoic acid, 4-bromo-, ethyl ester (9CI)

>  <IGC50>
2.971

>  <CAS>
2969-81-5

>  <SET>
ws

>  <Species>
Tetrahymena pyriformis

>  <Test duration>
48h

$$$$

  Mrv1808 07152009202D          

  9 10  0  0  0  0            999 V2000
    2.6962   -0.4098    0.0000 C   0  0  0  0  0  0  0  0  0  0  0  0
    2.6962   -1.2349    0.0000 C   0  0  0  0  0  0  0  0  0  0  0  0
    1.9817    0.0000    0.0000 C   0  0  0  0  0  0  0  0  0  0  0  0
    1.9817   -1.6473    0.0000 C   0  0  0  0  0  0  0  0  0  0  0  0
    1.2672   -0.4098    0.0000 C   0  0  0  0  0  0  0  0  0  0  0  0
    1.2672   -1.2349    0.0000 C   0  0  0  0  0  0  0  0  0  0  0  0
    0.4853   -0.1564    0.0000 S   0  0  0  0  0  0  0  0  0  0  0  0
    0.4853   -1.4910    0.0000 N   0  0  0  0  0  0  0  0  0  0  0  0
    0.0000   -0.8223    0.0000 C   0  0  0  0  0  0  0  0  0  0  0  0
  1  2  2  0  0  0  0
  1  3  1  0  0  0  0
  2  4  1  0  0  0  0
  5  3  2  0  0  0  0
  4  6  2  0  0  0  0
  6  5  1  0  0  0  0
  7  5  1  0  0  0  0
  6  8  1  0  0  0  0
  9  7  1  0  0  0  0
  8  9  2  0  0  0  0
M  END
>  <Name>
Benzothiazole

>  <IGC50>
2.97

>  <CAS>
95-16-9

>  <SET>
ws

>  <Species>
Tetrahymena pyriformis

>  <Test duration>
48h

$$$$

  Mrv1808 07152009202D          

 11 11  0  0  0  0            999 V2000
    2.8567   -1.2378    0.0000 C   0  0  0  0  0  0  0  0  0  0  0  0
    3.5676   -1.6489    0.0000 C   0  0  0  0  0  0  0  0  0  0  0  0
    2.1414   -1.6489    0.0000 C   0  0  0  0  0  0  0  0  0  0  0  0
    2.8567   -0.4111    0.0000 C   0  0  0  0  0  0  0  0  0  0  0  0
    4.2828   -1.2378    0.0000 O   0  0  0  0  0  0  0  0  0  0  0  0
    1.4262   -1.2378    0.0000 C   0  0  0  0  0  0  0  0  0  0  0  0
    2.1414    0.0000    0.0000 C   0  0  0  0  0  0  0  0  0  0  0  0
    0.7153   -1.6489    0.0000 O   0  0  0  0  0  0  0  0  0  0  0  0
    1.4262   -0.4111    0.0000 C   0  0  0  0  0  0  0  0  0  0  0  0
    0.0000   -1.2378    0.0000 C   0  0  0  0  0  0  0  0  0  0  0  0
    0.7153    0.0000    0.0000 O   0  0  0  0  0  0  0  0  0  0  0  0
  1  2  1  0  0  0  0
  1  3  2  0  0  0  0
  1  4  1  0  0  0  0
  2  5  2  0  0  0  0
  3  6  1  0  0  0  0
  7  4  2  0  0  0  0
  6  8  1  0  0  0  0
  6  9  2  0  0  0  0
  9  7  1  0  0  0  0
  8 10  1  0  0  0  0
  9 11  1  0  0  0  0
M  END
>  <Name>
Benzaldehyde, 4-hydroxy-3-methoxy-

>  <IGC50>
2.97

>  <CAS>
121-33-5

>  <SET>
ws

>  <Species>
Tetrahymena pyriformis

>  <Test duration>
48h

$$$$

  Mrv1808 07152009202D          

  9  9  0  0  0  0            999 V2000
    2.9697    0.2091    0.0000 C   0  0  0  0  0  0  0  0  0  0  0  0
    2.1750    0.0000    0.0000 C   0  0  0  0  0  0  0  0  0  0  0  0
    1.4222    0.4182    0.0000 C   0  0  0  0  0  0  0  0  0  0  0  0
    1.4222    1.2548    0.0000 C   0  0  0  0  0  0  0  0  0  0  0  0
    0.7110    0.0000    0.0000 C   0  0  0  0  0  0  0  0  0  0  0  0
    0.7110    1.6731    0.0000 C   0  0  0  0  0  0  0  0  0  0  0  0
    0.0000    0.4182    0.0000 C   0  0  0  0  0  0  0  0  0  0  0  0
    0.7110    2.5097    0.0000 N   0  0  0  0  0  0  0  0  0  0  0  0
    0.0000    1.2548    0.0000 C   0  0  0  0  0  0  0  0  0  0  0  0
  1  2  1  0  0  0  0
  2  3  1  0  0  0  0
  4  3  2  0  0  0  0
  3  5  1  0  0  0  0
  6  4  1  0  0  0  0
  5  7  2  0  0  0  0
  8  6  1  0  0  0  0
  9  6  2  0  0  0  0
  7  9  1  0  0  0  0
M  END
>  <Name>
Benzenamine, 3-ethyl- (9CI)

>  <IGC50>
2.97

>  <CAS>
587-02-0

>  <SET>
ws

>  <Species>
Tetrahymena pyriformis

>  <Test duration>
48h

$$$$

  Mrv1808 07152009202D          

 14 15  0  0  0  0            999 V2000
    1.2375   -2.1429    0.0000 C   0  0  0  0  0  0  0  0  0  0  0  0
    0.4125   -2.1429    0.0000 C   0  0  0  0  0  0  0  0  0  0  0  0
    1.6501   -1.4304    0.0000 C   0  0  0  0  0  0  0  0  0  0  0  0
    0.0000   -1.4304    0.0000 N   0  0  0  0  0  0  0  0  0  0  0  0
    1.2375   -0.7179    0.0000 C   0  0  0  0  0  0  0  0  0  0  0  0
    2.4751   -1.4304    0.0000 C   0  0  0  0  0  0  0  0  0  0  0  0
    0.4125   -0.7179    0.0000 C   0  0  0  0  0  0  0  0  0  0  0  0
    2.8823   -0.7179    0.0000 C   0  0  0  0  0  0  0  0  0  0  0  0
    3.7073   -0.7179    0.0000 C   0  0  0  0  0  0  0  0  0  0  0  0
    4.1198    0.0000    0.0000 C   0  0  0  0  0  0  0  0  0  0  0  0
    4.1198   -1.4304    0.0000 C   0  0  0  0  0  0  0  0  0  0  0  0
    4.9448    0.0000    0.0000 C   0  0  0  0  0  0  0  0  0  0  0  0
    4.9448   -1.4304    0.0000 C   0  0  0  0  0  0  0  0  0  0  0  0
    5.3573   -0.7179    0.0000 N   0  0  0  0  0  0  0  0  0  0  0  0
  1  2  2  0  0  0  0
  1  3  1  0  0  0  0
  2  4  1  0  0  0  0
  5  3  2  0  0  0  0
  3  6  1  0  0  0  0
  4  7  2  0  0  0  0
  7  5  1  0  0  0  0
  6  8  1  0  0  0  0
  8  9  1  0  0  0  0
  9 10  2  0  0  0  0
  9 11  1  0  0  0  0
 10 12  1  0  0  0  0
 13 11  2  0  0  0  0
 12 14  2  0  0  0  0
 14 13  1  0  0  0  0
M  END
>  <Name>
Pyridine, 4,4'-(1,2-ethanediyl)bis-

>  <IGC50>
2.97

>  <CAS>
4916-57-8

>  <SET>
ws

>  <Species>
Tetrahymena pyriformis

>  <Test duration>
48h

$$$$

  Mrv1808 07152009202D          

  8  8  0  0  0  0            999 V2000
    0.0000    0.0000    0.0000 O   0  0  0  0  0  0  0  0  0  0  0  0
    0.4125    0.7425    0.0000 C   0  0  0  0  0  0  0  0  0  0  0  0
    1.2376    0.7425    0.0000 C   0  0  0  0  0  0  0  0  0  0  0  0
    1.7325    1.4025    0.0000 O   0  0  0  0  0  0  0  0  0  0  0  0
    1.7325    0.0825    0.0000 C   0  0  0  0  0  0  0  0  0  0  0  0
    2.5163    1.1551    0.0000 C   0  0  0  0  0  0  0  0  0  0  0  0
    2.5163    0.3300    0.0000 C   0  0  0  0  0  0  0  0  0  0  0  0
    3.1763    1.6500    0.0000 C   0  0  0  0  0  0  0  0  0  0  0  0
  1  2  2  0  0  0  0
  2  3  1  0  0  0  0
  4  3  1  0  0  0  0
  3  5  2  0  0  0  0
  6  4  1  0  0  0  0
  5  7  1  0  0  0  0
  7  6  2  0  0  0  0
  6  8  1  0  0  0  0
M  END
>  <Name>
2-Furancarboxaldehyde, 5-methyl-

>  <IGC50>
2.97

>  <CAS>
620-02-0

>  <SET>
ws

>  <Species>
Tetrahymena pyriformis

>  <Test duration>
48h

$$$$

  Mrv1808 07152009203D          

  8  7  0  0  0  0            999 V2000
    5.5842    1.0197    1.7509 C   0  0  2  0  0  0  0  0  0  0  0  0
    5.8220    0.8204    3.1362 O   0  0  0  0  0  0  0  0  0  0  0  0
    6.7500    1.7455    1.0481 C   0  0  0  0  0  0  0  0  0  0  0  0
    4.3613    1.7940    1.6196 C   0  0  0  0  0  0  0  0  0  0  0  0
    8.0131    0.9154    1.0938 C   0  0  0  0  0  0  0  0  0  0  0  0
    3.3530    2.4199    1.5111 C   0  0  0  0  0  0  0  0  0  0  0  0
    2.1368    3.1788    1.3786 C   0  0  0  0  0  0  0  0  0  0  0  0
    0.9182    2.2794    1.3144 C   0  0  0  0  0  0  0  0  0  0  0  0
  1  2  1  0  0  0  0
  1  3  1  0  0  0  0
  1  4  1  0  0  0  0
  3  5  1  0  0  0  0
  4  6  3  0  0  0  0
  6  7  1  0  0  0  0
  7  8  1  0  0  0  0
M  END
>  <Name>
4-Heptyn-3-ol

>  <IGC50>
2.966

>  <CAS>
32398-69-9

>  <SET>
ws

>  <Species>
Tetrahymena pyriformis

>  <Test duration>
48h

$$$$

  Mrv1808 07152009202D          

 12 12  0  0  0  0            999 V2000
    1.2375    0.7012    0.0000 C   0  0  0  0  0  0  0  0  0  0  0  0
    1.6500    1.4437    0.0000 C   0  0  0  0  0  0  0  0  0  0  0  0
    0.4125    0.7012    0.0000 N   0  0  0  0  0  0  0  0  0  0  0  0
    1.6500    0.0000    0.0000 C   0  0  0  0  0  0  0  0  0  0  0  0
    1.2375    2.1450    0.0000 O   0  0  0  0  0  0  0  0  0  0  0  0
    2.4749    1.4437    0.0000 C   0  0  0  0  0  0  0  0  0  0  0  0
    0.0000    0.0000    0.0000 O   0  0  0  0  0  0  0  0  0  0  0  0
    2.8874    2.1450    0.0000 C   0  0  0  0  0  0  0  0  0  0  0  0
    2.8874    0.7012    0.0000 C   0  0  0  0  0  0  0  0  0  0  0  0
    3.7124    2.1450    0.0000 C   0  0  0  0  0  0  0  0  0  0  0  0
    3.7124    0.7012    0.0000 C   0  0  0  0  0  0  0  0  0  0  0  0
    4.1249    1.4437    0.0000 C   0  0  0  0  0  0  0  0  0  0  0  0
  1  2  1  0  0  0  0
  1  3  2  0  0  0  0
  1  4  1  0  0  0  0
  2  5  2  0  0  0  0
  2  6  1  0  0  0  0
  3  7  1  0  0  0  0
  8  6  2  0  0  0  0
  6  9  1  0  0  0  0
 10  8  1  0  0  0  0
  9 11  2  0  0  0  0
 12 10  2  0  0  0  0
 11 12  1  0  0  0  0
M  END
>  <Name>
1,2-Propanedione, 1-phenyl-, 2-oxime

>  <IGC50>
2.96

>  <CAS>
119-51-7

>  <SET>
ws

>  <Species>
Tetrahymena pyriformis

>  <Test duration>
48h

$$$$

  Mrv1808 07152009202D          

 10 10  0  0  0  0            999 V2000
    3.2629    1.4223    0.0000 C   0  0  0  0  0  0  0  0  0  0  0  0
    3.6812    0.7112    0.0000 C   0  0  0  0  0  0  0  0  0  0  0  0
    2.4681    1.4223    0.0000 C   0  0  0  0  0  0  0  0  0  0  0  0
    3.2629    0.0000    0.0000 C   0  0  0  0  0  0  0  0  0  0  0  0
    4.6015    0.7112    0.0000 C   0  0  0  0  0  0  0  0  0  0  0  0
    2.0498    0.7112    0.0000 C   0  0  0  0  0  0  0  0  0  0  0  0
    2.4681    0.0000    0.0000 C   0  0  0  0  0  0  0  0  0  0  0  0
    1.2550    0.7112    0.0000 C   0  0  0  0  0  0  0  0  0  0  0  0
    0.8367    0.0000    0.0000 C   0  0  0  0  0  0  0  0  0  0  0  0
    0.0000    0.0000    0.0000 N   0  0  0  0  0  0  0  0  0  0  0  0
  2  1  2  0  0  0  0
  1  3  1  0  0  0  0
  4  2  1  0  0  0  0
  2  5  1  0  0  0  0
  3  6  2  0  0  0  0
  7  4  2  0  0  0  0
  6  7  1  0  0  0  0
  6  8  1  0  0  0  0
  8  9  1  0  0  0  0
  9 10  1  0  0  0  0
M  END
>  <Name>
p-Methylphenethylamine

>  <IGC50>
2.96

>  <CAS>
3261-62-9

>  <SET>
ws

>  <Species>
Tetrahymena pyriformis

>  <Test duration>
48h

$$$$

  Mrv1808 07152009202D          

  8  7  0  0  0  0            999 V2000
    2.2303    0.8578    0.0000 C   0  0  0  0  0  0  0  0  0  0  0  0
    2.9594    1.2438    0.0000 C   0  0  0  0  0  0  0  0  0  0  0  0
    2.2303    0.0000    0.0000 Br  0  0  0  0  0  0  0  0  0  0  0  0
    1.5012    1.2438    0.0000 C   0  0  0  0  0  0  0  0  0  0  0  0
    3.6885    0.8578    0.0000 O   0  0  0  0  0  0  0  0  0  0  0  0
    2.9594    2.1016    0.0000 O   0  0  0  0  0  0  0  0  0  0  0  0
    0.7291    0.8578    0.0000 C   0  0  0  0  0  0  0  0  0  0  0  0
    0.0000    1.2438    0.0000 C   0  0  0  0  0  0  0  0  0  0  0  0
  1  2  1  0  0  0  0
  1  3  1  0  0  0  0
  1  4  1  0  0  0  0
  2  5  1  0  0  0  0
  2  6  2  0  0  0  0
  4  7  1  0  0  0  0
  7  8  1  0  0  0  0
M  END
>  <Name>
Valeric acid, 2-bromo- (8CI)

>  <IGC50>
2.958

>  <CAS>
584-93-0

>  <SET>
ws

>  <Species>
Tetrahymena pyriformis

>  <Test duration>
48h

$$$$

  Mrv1808 07152009202D          

 10  9  0  0  0  0            999 V2000
    0.0000    0.0000    0.0000 C   0  0  0  0  0  0  0  0  0  0  0  0
    0.7111    0.4183    0.0000 C   0  0  0  0  0  0  0  0  0  0  0  0
    1.4222    0.0000    0.0000 C   0  0  0  0  0  0  0  0  0  0  0  0
    2.1751    0.4183    0.0000 C   0  0  0  0  0  0  0  0  0  0  0  0
    2.8444    0.7948    0.0000 C   0  0  0  0  0  0  0  0  0  0  0  0
    3.5555    1.2549    0.0000 C   0  0  0  0  0  0  0  0  0  0  0  0
    4.3084    0.8366    0.0000 C   0  0  0  0  0  0  0  0  0  0  0  0
    5.0195    1.2549    0.0000 C   0  0  0  0  0  0  0  0  0  0  0  0
    4.3084    0.0419    0.0000 O   0  0  0  0  0  0  0  0  0  0  0  0
    5.7306    0.8366    0.0000 C   0  0  0  0  0  0  0  0  0  0  0  0
  1  2  1  0  0  0  0
  2  3  1  0  0  0  0
  3  4  1  0  0  0  0
  4  5  3  0  0  0  0
  5  6  1  0  0  0  0
  6  7  1  0  0  0  0
  7  8  1  0  0  0  0
  7  9  1  0  0  0  0
  8 10  1  0  0  0  0
M  END
>  <Name>
5-Nonyn-3-ol

>  <IGC50>
2.958

>  <CAS>
53723-19-6

>  <SET>
ws

>  <Species>
Tetrahymena pyriformis

>  <Test duration>
48h

$$$$

  Mrv1808 07152009202D          

 10  9  0  0  0  0            999 V2000
    2.1751    1.2549    0.0000 O   0  0  0  0  0  0  0  0  0  0  0  0
    1.4221    0.8366    0.0000 C   0  0  0  0  0  0  0  0  0  0  0  0
    2.8862    0.8366    0.0000 C   0  0  0  0  0  0  0  0  0  0  0  0
    0.7111    1.2549    0.0000 C   0  0  0  0  0  0  0  0  0  0  0  0
    1.4221    0.0000    0.0000 O   0  0  0  0  0  0  0  0  0  0  0  0
    3.5973    1.2549    0.0000 C   0  0  0  0  0  0  0  0  0  0  0  0
    0.0000    0.8366    0.0000 C   0  0  0  0  0  0  0  0  0  0  0  0
    4.3502    0.8366    0.0000 C   0  0  0  0  0  0  0  0  0  0  0  0
    5.0612    1.2549    0.0000 C   0  0  0  0  0  0  0  0  0  0  0  0
    5.7724    0.8366    0.0000 C   0  0  0  0  0  0  0  0  0  0  0  0
  1  2  1  0  0  0  0
  1  3  1  0  0  0  0
  2  4  1  0  0  0  0
  2  5  2  0  0  0  0
  3  6  1  0  0  0  0
  4  7  1  0  0  0  0
  6  8  1  0  0  0  0
  8  9  1  0  0  0  0
  9 10  1  0  0  0  0
M  END
>  <Name>
Propionic acid, pentyl ester (6CI,7CI,8CI)

>  <IGC50>
2.957

>  <CAS>
624-54-4

>  <SET>
ws

>  <Species>
Tetrahymena pyriformis

>  <Test duration>
48h

$$$$

  Mrv1808 07152009202D          

 10 10  0  0  0  0            999 V2000
    3.7081   -0.7177    0.0000 C   0  0  0  0  0  0  0  0  0  0  0  0
    4.1248   -1.4230    0.0000 O   0  0  0  0  0  0  0  0  0  0  0  0
    2.8832   -0.7177    0.0000 C   0  0  0  0  0  0  0  0  0  0  0  0
    2.4749   -1.4230    0.0000 C   0  0  0  0  0  0  0  0  0  0  0  0
    2.4749    0.0000    0.0000 C   0  0  0  0  0  0  0  0  0  0  0  0
    1.6499   -1.4230    0.0000 C   0  0  0  0  0  0  0  0  0  0  0  0
    1.6499    0.0000    0.0000 C   0  0  0  0  0  0  0  0  0  0  0  0
    1.2333   -0.7177    0.0000 C   0  0  0  0  0  0  0  0  0  0  0  0
    0.4083   -0.7177    0.0000 O   0  0  0  0  0  0  0  0  0  0  0  0
    0.0000    0.0000    0.0000 C   0  0  0  0  0  0  0  0  0  0  0  0
  1  2  2  0  0  0  0
  1  3  1  0  0  0  0
  3  4  2  0  0  0  0
  3  5  1  0  0  0  0
  4  6  1  0  0  0  0
  5  7  2  0  0  0  0
  6  8  2  0  0  0  0
  7  8  1  0  0  0  0
  8  9  1  0  0  0  0
  9 10  1  0  0  0  0
M  END
>  <Name>
Benzaldehyde, 4-methoxy-

>  <IGC50>
2.953

>  <CAS>
123-11-5

>  <SET>
ws

>  <Species>
Tetrahymena pyriformis

>  <Test duration>
48h

$$$$

  Mrv1808 07152009203D          

 10 10  0  0  0  0            999 V2000
   -2.4977    0.0016   -0.0051 N   0  0  0  0  0  0  0  0  0  0  0  0
   -1.0956    0.0008   -0.0013 C   0  0  0  0  0  0  0  0  0  0  0  0
   -0.3843    1.2219    0.0013 C   0  0  0  0  0  0  0  0  0  0  0  0
   -0.3865   -1.2213    0.0013 C   0  0  0  0  0  0  0  0  0  0  0  0
    1.0074    1.2016    0.0050 C   0  0  0  0  0  0  0  0  0  0  0  0
   -1.0802    2.5372    0.0006 C   0  0  0  0  0  0  0  0  0  0  0  0
    1.0054   -1.2036    0.0049 C   0  0  0  0  0  0  0  0  0  0  0  0
   -1.0843   -2.5357    0.0006 C   0  0  0  0  0  0  0  0  0  0  0  0
    1.7100   -0.0018    0.0053 C   0  0  0  0  0  0  0  0  0  0  0  0
    3.1956   -0.0014   -0.0078 C   0  0  0  0  0  0  0  0  0  0  0  0
  1  2  1  0  0  0  0
  2  3  1  0  0  0  0
  2  4  2  0  0  0  0
  3  5  2  0  0  0  0
  3  6  1  0  0  0  0
  7  4  1  0  0  0  0
  4  8  1  0  0  0  0
  5  9  1  0  0  0  0
  9  7  2  0  0  0  0
  9 10  1  0  0  0  0
M  END
>  <Name>
Benzenamine, 2,4,6-trimethyl-

>  <IGC50>
2.95

>  <CAS>
88-05-1

>  <SET>
ws

>  <Species>
Tetrahymena pyriformis

>  <Test duration>
48h

$$$$

  Mrv1808 07152009202D          

  7  7  0  0  0  0            999 V2000
    0.6692    1.2549    0.0000 S   0  0  0  0  0  0  0  0  0  0  0  0
    0.0000    0.7529    0.0000 C   0  0  0  0  0  0  0  0  0  0  0  0
    1.3803    0.7529    0.0000 C   0  0  0  0  0  0  0  0  0  0  0  0
    0.2510    0.0000    0.0000 C   0  0  0  0  0  0  0  0  0  0  0  0
    1.0876    0.0000    0.0000 C   0  0  0  0  0  0  0  0  0  0  0  0
    2.0914    1.1712    0.0000 C   0  0  0  0  0  0  0  0  0  0  0  0
    2.0914    2.0077    0.0000 O   0  0  0  0  0  0  0  0  0  0  0  0
  2  1  1  0  0  0  0
  1  3  1  0  0  0  0
  4  2  2  0  0  0  0
  3  5  2  0  0  0  0
  3  6  1  0  0  0  0
  5  4  1  0  0  0  0
  6  7  2  0  0  0  0
M  END
>  <Name>
2-Thiophenecarboxaldehyde

>  <IGC50>
2.95

>  <CAS>
98-03-3

>  <SET>
ws

>  <Species>
Tetrahymena pyriformis

>  <Test duration>
48h

$$$$

  Mrv1808 07152009202D          

  8  8  0  0  0  0            999 V2000
    0.0000   -0.7161    0.0000 N   0  0  0  0  0  0  0  0  0  0  0  0
    0.8250   -0.7161    0.0000 C   0  0  0  0  0  0  0  0  0  0  0  0
    1.2375    0.0000    0.0000 C   0  0  0  0  0  0  0  0  0  0  0  0
    1.2375   -1.4289    0.0000 C   0  0  0  0  0  0  0  0  0  0  0  0
    2.0625    0.0000    0.0000 C   0  0  0  0  0  0  0  0  0  0  0  0
    2.0625   -1.4289    0.0000 C   0  0  0  0  0  0  0  0  0  0  0  0
    2.4750   -0.7161    0.0000 C   0  0  0  0  0  0  0  0  0  0  0  0
    3.3001   -0.7161    0.0000 C   0  0  0  0  0  0  0  0  0  0  0  0
  1  2  1  0  0  0  0
  2  3  2  0  0  0  0
  2  4  1  0  0  0  0
  3  5  1  0  0  0  0
  6  4  2  0  0  0  0
  5  7  2  0  0  0  0
  7  6  1  0  0  0  0
  7  8  1  0  0  0  0
M  END
>  <Name>
Benzenamine, 4-methyl-

>  <IGC50>
2.95

>  <CAS>
106-49-0

>  <SET>
ws

>  <Species>
Tetrahymena pyriformis

>  <Test duration>
48h

$$$$

  Mrv1808 07152009202D          

 11 11  0  0  0  0            999 V2000
    0.0000    0.0000    0.0000 C   0  0  0  0  0  0  0  0  0  0  0  0
    0.2232    0.7990    0.0000 O   0  0  0  0  0  0  0  0  0  0  0  0
    0.9987    0.8812    0.0000 C   0  0  0  0  0  0  0  0  0  0  0  0
    1.4570    0.3407    0.0000 O   0  0  0  0  0  0  0  0  0  0  0  0
    1.2925    1.7155    0.0000 C   0  0  0  0  0  0  0  0  0  0  0  0
    0.7520    2.3382    0.0000 C   0  0  0  0  0  0  0  0  0  0  0  0
    2.1032    1.8800    0.0000 C   0  0  0  0  0  0  0  0  0  0  0  0
    1.0105    3.1254    0.0000 C   0  0  0  0  0  0  0  0  0  0  0  0
    2.3617    2.6555    0.0000 C   0  0  0  0  0  0  0  0  0  0  0  0
    0.5052    3.7012    0.0000 O   0  0  0  0  0  0  0  0  0  0  0  0
    1.8212    3.2782    0.0000 C   0  0  0  0  0  0  0  0  0  0  0  0
  1  2  1  0  0  0  0
  2  3  1  0  0  0  0
  3  4  2  0  0  0  0
  3  5  1  0  0  0  0
  5  6  2  0  0  0  0
  5  7  1  0  0  0  0
  6  8  1  0  0  0  0
  9  7  2  0  0  0  0
  8 10  1  0  0  0  0
  8 11  2  0  0  0  0
 11  9  1  0  0  0  0
M  END
>  <Name>
methyl 3-hydroxybenzoate

>  <IGC50>
2.95

>  <CAS>
19438-10-9

>  <SET>
ws

>  <Species>
Tetrahymena pyriformis

>  <Test duration>
48h

$$$$

  Mrv1808 07152009203D          

 12 13  0  0  0  0            999 V2000
    0.0262    0.0000    2.9564 O   0  0  0  0  0  0  0  0  0  0  0  0
    0.8444    0.7898    3.3618 C   0  0  0  0  0  0  0  0  0  0  0  0
    2.0849    0.2494    3.5897 O   0  0  0  0  0  0  0  0  0  0  0  0
    0.7820    2.2646    3.6820 C   0  0  0  0  0  0  0  0  0  0  0  0
    2.9969    1.2751    4.0180 C   0  0  2  0  0  0  0  0  0  0  0  0
    2.1855    2.5855    4.1846 C   0  0  0  0  0  0  0  0  0  0  0  0
    4.1470    1.4515    3.0606 C   0  0  0  0  0  0  0  0  0  0  0  0
    5.2048    2.2710    3.4676 C   0  0  0  0  0  0  0  0  0  0  0  0
    4.1986    0.8345    1.8126 C   0  0  0  0  0  0  0  0  0  0  0  0
    6.2946    2.4751    2.6315 C   0  0  0  0  0  0  0  0  0  0  0  0
    5.2943    1.0403    0.9787 C   0  0  0  0  0  0  0  0  0  0  0  0
    6.3404    1.8597    1.3840 C   0  0  0  0  0  0  0  0  0  0  0  0
  1  2  2  0  0  0  0
  3  2  1  0  0  0  0
  2  4  1  0  0  0  0
  5  3  1  0  0  0  0
  4  6  1  0  0  0  0
  6  5  1  0  0  0  0
  5  7  1  0  0  0  0
  7  8  2  0  0  0  0
  9  7  1  0  0  0  0
  8 10  1  0  0  0  0
 11  9  2  0  0  0  0
 10 12  2  0  0  0  0
 12 11  1  0  0  0  0
M  END
>  <Name>
2(3H)-Furanone, dihydro-5-phenyl- (8CI)(9CI)

>  <IGC50>
2.95

>  <CAS>
1008-76-0

>  <SET>
ws

>  <Species>
Tetrahymena pyriformis

>  <Test duration>
48h

$$$$

  Mrv1808 07152009203D          

  7  6  0  0  0  0            999 V2000
   -0.0166    1.1849   -0.4136 C   0  0  0  0  0  0  0  0  0  0  0  0
   -0.0790   -0.3249   -0.2399 C   0  0  1  0  0  0  0  0  0  0  0  0
    0.5180    1.9429    0.3610 O   0  0  0  0  0  0  0  0  0  0  0  0
    1.1424   -0.8947    0.4791 C   0  0  0  0  0  0  0  0  0  0  0  0
   -1.3617   -0.6869    0.5129 C   0  0  0  0  0  0  0  0  0  0  0  0
    2.3824   -0.8545   -0.3861 C   0  0  0  0  0  0  0  0  0  0  0  0
   -2.6065   -0.4270   -0.3065 C   0  0  0  0  0  0  0  0  0  0  0  0
  1  2  1  0  0  0  0
  1  3  2  0  0  0  0
  2  4  1  0  0  0  0
  2  5  1  0  0  0  0
  4  6  1  0  0  0  0
  5  7  1  0  0  0  0
M  END
>  <Name>
Butyraldehyde, 2-ethyl-

>  <IGC50>
2.946

>  <CAS>
97-96-1

>  <SET>
ws

>  <Species>
Tetrahymena pyriformis

>  <Test duration>
48h

$$$$

  Mrv1808 07152009203D          

 14 13  0  0  0  0            999 V2000
    6.2222    4.3275    2.1936 C   0  0  0  0  0  0  0  0  0  0  0  0
    4.7186    4.3396    1.9361 C   0  0  1  0  0  0  0  0  0  0  0  0
    6.9908    4.2136    1.0762 O   0  0  0  0  0  0  0  0  0  0  0  0
    6.7368    4.3871    3.2929 O   0  0  0  0  0  0  0  0  0  0  0  0
    4.2630    5.6969    1.4190 C   0  0  0  0  0  0  0  0  0  0  0  0
    4.2596    3.2408    0.9712 C   0  0  0  0  0  0  0  0  0  0  0  0
    8.4090    4.2870    1.1839 C   0  0  0  0  0  0  0  0  0  0  0  0
    2.9778    6.1362    1.5598 O   0  0  0  0  0  0  0  0  0  0  0  0
    4.9111    6.5495    0.8542 O   0  0  0  0  0  0  0  0  0  0  0  0
    4.4876    1.8865    1.5456 C   0  0  0  0  0  0  0  0  0  0  0  0
    8.9141    5.7121    1.2924 C   0  0  0  0  0  0  0  0  0  0  0  0
    2.0335    5.2566    2.1665 C   0  0  0  0  0  0  0  0  0  0  0  0
    3.5172    0.9928    1.6943 C   0  0  0  0  0  0  0  0  0  0  0  0
    0.7707    6.0503    2.4229 C   0  0  0  0  0  0  0  0  0  0  0  0
  1  2  1  0  0  0  0
  1  3  1  0  0  0  0
  1  4  2  0  0  0  0
  2  5  1  0  0  0  0
  2  6  1  0  0  0  0
  3  7  1  0  0  0  0
  5  8  1  0  0  0  0
  5  9  2  0  0  0  0
  6 10  1  0  0  0  0
  7 11  1  0  0  0  0
  8 12  1  0  0  0  0
 10 13  2  0  0  0  0
 12 14  1  0  0  0  0
M  END
>  <Name>
Propanedioic acid, 2-propenyl-, diethyl ester

>  <IGC50>
2.944

>  <CAS>
2049-80-1

>  <SET>
ws

>  <Species>
Tetrahymena pyriformis

>  <Test duration>
48h

$$$$

  Mrv1808 07152009203D          

  9  9  0  0  0  0            999 V2000
   -0.9576   -0.2193   -0.0003 C   0  0  0  0  0  0  0  0  0  0  0  0
   -0.1262   -1.3425   -0.0013 C   0  0  0  0  0  0  0  0  0  0  0  0
   -0.3913    1.0559   -0.0027 C   0  0  0  0  0  0  0  0  0  0  0  0
   -2.4274   -0.4169    0.0021 C   0  0  0  0  0  0  0  0  0  0  0  0
    1.2532   -1.1915   -0.0039 C   0  0  0  0  0  0  0  0  0  0  0  0
    0.9904    1.2063   -0.0053 C   0  0  0  0  0  0  0  0  0  0  0  0
   -3.2294    0.4900    0.0035 O   0  0  0  0  0  0  0  0  0  0  0  0
    1.8213    0.0852   -0.0045 C   0  0  0  0  0  0  0  0  0  0  0  0
    3.2978    0.2439    0.0077 C   0  0  0  0  0  0  0  0  0  0  0  0
  1  2  1  0  0  0  0
  1  3  2  0  0  0  0
  1  4  1  0  0  0  0
  2  5  2  0  0  0  0
  3  6  1  0  0  0  0
  4  7  2  0  0  0  0
  8  5  1  0  0  0  0
  8  6  2  0  0  0  0
  8  9  1  0  0  0  0
M  END
>  <Name>
Benzaldehyde, 4-methyl-

>  <IGC50>
2.943

>  <CAS>
104-87-0

>  <SET>
ws

>  <Species>
Tetrahymena pyriformis

>  <Test duration>
48h

$$$$

  Mrv1808 07152009202D          

 10  9  0  0  0  0            999 V2000
    0.7110    1.5894    0.0000 C   0  0  0  0  0  0  0  0  0  0  0  0
    1.4639    2.0077    0.0000 C   0  0  0  0  0  0  0  0  0  0  0  0
    0.0000    2.0077    0.0000 C   0  0  0  0  0  0  0  0  0  0  0  0
    2.1750    1.5894    0.0000 C   0  0  0  0  0  0  0  0  0  0  0  0
    2.8860    2.0077    0.0000 C   0  0  0  0  0  0  0  0  0  0  0  0
    3.5552    1.6312    0.0000 C   0  0  0  0  0  0  0  0  0  0  0  0
    4.2663    1.2130    0.0000 C   0  0  0  0  0  0  0  0  0  0  0  0
    5.0192    0.8365    0.0000 C   0  0  0  0  0  0  0  0  0  0  0  0
    5.7302    1.2130    0.0000 O   0  0  0  0  0  0  0  0  0  0  0  0
    5.0192    0.0000    0.0000 O   0  0  0  0  0  0  0  0  0  0  0  0
  1  2  1  0  0  0  0
  1  3  1  0  0  0  0
  2  4  1  0  0  0  0
  4  5  1  0  0  0  0
  5  6  1  0  0  0  0
  6  7  3  0  0  0  0
  7  8  1  0  0  0  0
  8  9  1  0  0  0  0
  8 10  2  0  0  0  0
M  END
>  <Name>
Oct-2-ynoic acid

>  <IGC50>
2.943

>  <CAS>
5663-96-7

>  <SET>
ws

>  <Species>
Tetrahymena pyriformis

>  <Test duration>
48h

$$$$

  Mrv1808 07152009202D          

  9  8  0  0  0  0            999 V2000
    2.1751    1.2549    0.0000 C   0  0  0  0  0  0  0  0  0  0  0  0
    1.4640    0.8366    0.0000 C   0  0  0  0  0  0  0  0  0  0  0  0
    2.9280    0.8366    0.0000 C   0  0  0  0  0  0  0  0  0  0  0  0
    0.7529    1.2549    0.0000 C   0  0  0  0  0  0  0  0  0  0  0  0
    1.4640    0.0000    0.0000 O   0  0  0  0  0  0  0  0  0  0  0  0
    3.6391    1.2549    0.0000 C   0  0  0  0  0  0  0  0  0  0  0  0
    0.0000    0.8366    0.0000 C   0  0  0  0  0  0  0  0  0  0  0  0
    4.3502    0.8366    0.0000 C   0  0  0  0  0  0  0  0  0  0  0  0
    5.1031    1.2549    0.0000 C   0  0  0  0  0  0  0  0  0  0  0  0
  1  2  1  0  0  0  0
  1  3  1  0  0  0  0
  2  4  1  0  0  0  0
  2  5  1  0  0  0  0
  3  6  1  0  0  0  0
  4  7  1  0  0  0  0
  6  8  1  0  0  0  0
  8  9  1  0  0  0  0
M  END
>  <Name>
(1)-Octan-3-ol

>  <IGC50>
2.94

>  <CAS>
589-98-0

>  <SET>
ws

>  <Species>
Tetrahymena pyriformis

>  <Test duration>
48h

$$$$

  Mrv1808 07152009203D          

  9  9  0  0  0  0            999 V2000
   -2.7593    1.6519   -0.0005 Cl  0  0  0  0  0  0  0  0  0  0  0  0
   -1.4932    0.4861    0.0003 C   0  0  0  0  0  0  0  0  0  0  0  0
   -0.1615    0.9014    0.0006 C   0  0  0  0  0  0  0  0  0  0  0  0
   -1.7994   -0.8748   -0.0002 C   0  0  0  0  0  0  0  0  0  0  0  0
    0.8639   -0.0444    0.0005 C   0  0  0  0  0  0  0  0  0  0  0  0
   -0.7741   -1.8205   -0.0002 C   0  0  0  0  0  0  0  0  0  0  0  0
    0.5575   -1.4053    0.0001 C   0  0  0  0  0  0  0  0  0  0  0  0
    2.2284    0.3802    0.0000 C   0  0  0  0  0  0  0  0  0  0  0  0
    3.3377    0.7254   -0.0005 N   0  0  0  0  0  0  0  0  0  0  0  0
  1  2  1  0  0  0  0
  3  2  1  0  0  0  0
  2  4  2  0  0  0  0
  5  3  2  0  0  0  0
  6  4  1  0  0  0  0
  5  7  1  0  0  0  0
  5  8  1  0  0  0  0
  7  6  2  0  0  0  0
  9  8  3  0  0  0  0
M  END
>  <Name>
3-chlorobenzonitrile

>  <IGC50>
2.94

>  <CAS>
766-84-7

>  <SET>
ws

>  <Species>
Tetrahymena pyriformis

>  <Test duration>
48h

$$$$

  Mrv1808 07152009202D          

 10 10  0  0  0  0            999 V2000
    0.8366    0.0000    0.0000 C   0  0  0  0  0  0  0  0  0  0  0  0
    1.2549    0.7111    0.0000 C   0  0  0  0  0  0  0  0  0  0  0  0
    0.0000    0.0000    0.0000 C   0  0  0  0  0  0  0  0  0  0  0  0
    0.8366    1.4222    0.0000 O   0  0  0  0  0  0  0  0  0  0  0  0
    2.0914    0.7111    0.0000 C   0  0  0  0  0  0  0  0  0  0  0  0
    2.5098    1.4222    0.0000 C   0  0  0  0  0  0  0  0  0  0  0  0
    2.5098    0.0000    0.0000 C   0  0  0  0  0  0  0  0  0  0  0  0
    3.3464    1.4222    0.0000 C   0  0  0  0  0  0  0  0  0  0  0  0
    3.3464    0.0000    0.0000 C   0  0  0  0  0  0  0  0  0  0  0  0
    3.7647    0.7111    0.0000 C   0  0  0  0  0  0  0  0  0  0  0  0
  1  2  1  0  0  0  0
  1  3  1  0  0  0  0
  2  4  2  0  0  0  0
  2  5  1  0  0  0  0
  6  5  2  0  0  0  0
  5  7  1  0  0  0  0
  8  6  1  0  0  0  0
  7  9  2  0  0  0  0
 10  8  2  0  0  0  0
  9 10  1  0  0  0  0
M  END
>  <Name>
1-Propanone, 1-phenyl-

>  <IGC50>
2.93

>  <CAS>
93-55-0

>  <SET>
ws

>  <Species>
Tetrahymena pyriformis

>  <Test duration>
48h

$$$$

  Mrv1808 07152009202D          

 12 12  0  0  0  0            999 V2000
    1.2375   -2.2528    0.0000 C   0  0  0  0  0  0  0  0  0  0  0  0
    0.4125   -2.2528    0.0000 C   0  0  0  0  0  0  0  0  0  0  0  0
    1.6499   -1.5411    0.0000 C   0  0  0  0  0  0  0  0  0  0  0  0
    0.0000   -1.5411    0.0000 C   0  0  0  0  0  0  0  0  0  0  0  0
    1.2375   -0.8250    0.0000 C   0  0  0  0  0  0  0  0  0  0  0  0
    2.4704   -1.5411    0.0000 C   0  0  0  0  0  0  0  0  0  0  0  0
    0.4125   -0.8250    0.0000 C   0  0  0  0  0  0  0  0  0  0  0  0
    2.8829   -0.8250    0.0000 C   0  0  0  0  0  0  0  0  0  0  0  0
    3.7078   -0.8250    0.0000 C   0  0  0  0  0  0  0  0  0  0  0  0
    3.7078    0.0000    0.0000 C   0  0  0  0  0  0  0  0  0  0  0  0
    4.5328   -0.8250    0.0000 C   0  0  0  0  0  0  0  0  0  0  0  0
    3.7078   -1.6499    0.0000 O   0  0  0  0  0  0  0  0  0  0  0  0
  1  2  2  0  0  0  0
  1  3  1  0  0  0  0
  2  4  1  0  0  0  0
  5  3  2  0  0  0  0
  3  6  1  0  0  0  0
  4  7  2  0  0  0  0
  7  5  1  0  0  0  0
  6  8  1  0  0  0  0
  8  9  1  0  0  0  0
  9 10  1  0  0  0  0
  9 11  1  0  0  0  0
  9 12  1  0  0  0  0
M  END
>  <Name>
1-Propanol, 1,1-dimethyl-3-phenyl- (8CI)

>  <IGC50>
2.93

>  <CAS>
103-05-9

>  <SET>
ws

>  <Species>
Tetrahymena pyriformis

>  <Test duration>
48h

$$$$

  Mrv1808 07152009202D          

 11 11  0  0  0  0            999 V2000
    1.2385    0.0000    0.0000 C   0  0  0  0  0  0  0  0  0  0  0  0
    1.6484   -0.7160    0.0000 O   0  0  0  0  0  0  0  0  0  0  0  0
    1.2385   -1.4290    0.0000 C   0  0  0  0  0  0  0  0  0  0  0  0
    1.6484   -2.1450    0.0000 C   0  0  0  0  0  0  0  0  0  0  0  0
    0.4128   -1.4290    0.0000 C   0  0  0  0  0  0  0  0  0  0  0  0
    1.2385   -2.8580    0.0000 C   0  0  0  0  0  0  0  0  0  0  0  0
    2.4741   -2.1450    0.0000 N   0  3  0  0  0  0  0  0  0  0  0  0
    0.0000   -2.1450    0.0000 C   0  0  0  0  0  0  0  0  0  0  0  0
    0.4128   -2.8580    0.0000 C   0  0  0  0  0  0  0  0  0  0  0  0
    2.8869   -1.4290    0.0000 O   0  0  0  0  0  0  0  0  0  0  0  0
    2.8869   -2.8580    0.0000 O   0  5  0  0  0  0  0  0  0  0  0  0
  1  2  1  0  0  0  0
  2  3  1  0  0  0  0
  3  4  2  0  0  0  0
  3  5  1  0  0  0  0
  4  6  1  0  0  0  0
  4  7  1  0  0  0  0
  8  5  2  0  0  0  0
  6  9  2  0  0  0  0
  7 10  2  0  0  0  0
  7 11  1  0  0  0  0
  9  8  1  0  0  0  0
M  CHG  2   7   1  11  -1
M  END
>  <Name>
Benzene, 1-methoxy-2-nitro-

>  <IGC50>
2.93

>  <CAS>
91-23-6

>  <SET>
ws

>  <Species>
Tetrahymena pyriformis

>  <Test duration>
48h

$$$$

  Mrv1808 07152009202D          

 14 13  0  0  0  0            999 V2000
    3.5972    1.6732    0.0000 C   0  0  0  0  0  0  0  0  0  0  0  0
    2.8862    1.2549    0.0000 C   0  0  0  0  0  0  0  0  0  0  0  0
    4.3501    1.2549    0.0000 O   0  0  0  0  0  0  0  0  0  0  0  0
    3.5972    2.5097    0.0000 O   0  0  0  0  0  0  0  0  0  0  0  0
    2.1751    1.6732    0.0000 C   0  0  0  0  0  0  0  0  0  0  0  0
    2.8862    0.4183    0.0000 C   0  0  0  0  0  0  0  0  0  0  0  0
    5.0612    1.6732    0.0000 C   0  0  0  0  0  0  0  0  0  0  0  0
    1.4222    1.2549    0.0000 O   0  0  0  0  0  0  0  0  0  0  0  0
    2.1751    2.5097    0.0000 O   0  0  0  0  0  0  0  0  0  0  0  0
    3.5972    0.0000    0.0000 C   0  0  0  0  0  0  0  0  0  0  0  0
    2.1751    0.0000    0.0000 C   0  0  0  0  0  0  0  0  0  0  0  0
    5.7723    1.2549    0.0000 C   0  0  0  0  0  0  0  0  0  0  0  0
    0.7111    1.6732    0.0000 C   0  0  0  0  0  0  0  0  0  0  0  0
    0.0000    1.2549    0.0000 C   0  0  0  0  0  0  0  0  0  0  0  0
  1  2  1  0  0  0  0
  1  3  1  0  0  0  0
  1  4  2  0  0  0  0
  2  5  1  0  0  0  0
  2  6  2  0  0  0  0
  3  7  1  0  0  0  0
  5  8  1  0  0  0  0
  5  9  2  0  0  0  0
  6 10  1  0  0  0  0
  6 11  1  0  0  0  0
  7 12  1  0  0  0  0
  8 13  1  0  0  0  0
 13 14  1  0  0  0  0
M  END
>  <Name>
Propanedioic acid, (1-methylethylidene)-, diethyl ester

>  <IGC50>
2.927

>  <CAS>
6802-75-1

>  <SET>
ws

>  <Species>
Tetrahymena pyriformis

>  <Test duration>
48h

$$$$

  Mrv1808 07152009202D          

 13 13  0  0  0  0            999 V2000
    1.4438    0.4125    0.0000 C   0  0  0  0  0  0  0  0  0  0  0  0
    1.4438    1.2375    0.0000 C   0  0  0  0  0  0  0  0  0  0  0  0
    0.7425    0.0000    0.0000 C   0  0  0  0  0  0  0  0  0  0  0  0
    0.7425    1.6087    0.0000 C   0  0  0  0  0  0  0  0  0  0  0  0
    2.1038    1.6087    0.0000 O   0  0  0  0  0  0  0  0  0  0  0  0
    0.0000    0.4125    0.0000 C   0  0  0  0  0  0  0  0  0  0  0  0
    0.0000    1.2375    0.0000 C   0  0  0  0  0  0  0  0  0  0  0  0
    0.7425    2.4337    0.0000 C   0  0  0  0  0  0  0  0  0  0  0  0
    1.4438    2.8462    0.0000 O   0  0  0  0  0  0  0  0  0  0  0  0
    0.0000    2.8462    0.0000 O   0  0  0  0  0  0  0  0  0  0  0  0
    2.1038    2.4337    0.0000 C   0  0  0  0  0  0  0  0  0  0  0  0
    2.8050    2.8462    0.0000 C   0  0  0  0  0  0  0  0  0  0  0  0
    3.5475    2.4337    0.0000 O   0  0  0  0  0  0  0  0  0  0  0  0
  2  1  2  0  0  0  0
  1  3  1  0  0  0  0
  4  2  1  0  0  0  0
  2  5  1  0  0  0  0
  3  6  2  0  0  0  0
  7  4  2  0  0  0  0
  4  8  1  0  0  0  0
  6  7  1  0  0  0  0
  8  9  1  0  0  0  0
  8 10  2  0  0  0  0
  9 11  1  0  0  0  0
 11 12  1  0  0  0  0
 12 13  1  0  0  0  0
M  END
>  <Name>
2-hydroxyethyl 2-hydroxybenzoate

>  <IGC50>
2.92

>  <CAS>
87-28-5

>  <SET>
ws

>  <Species>
Tetrahymena pyriformis

>  <Test duration>
48h

$$$$

  Mrv1808 07152009203D          

 10 10  0  0  0  0            999 V2000
    3.2480    0.4119    0.1915 C   0  0  0  0  0  0  0  0  0  0  0  0
    1.8310   -0.0576    0.1255 C   0  0  0  0  0  0  0  0  0  0  0  0
    4.1703   -0.5609   -0.2231 O   0  0  0  0  0  0  0  0  0  0  0  0
    0.7980    0.7889    0.0574 C   0  0  0  0  0  0  0  0  0  0  0  0
   -0.5906    0.3395    0.0235 C   0  0  0  0  0  0  0  0  0  0  0  0
   -0.9098   -1.0210    0.0790 C   0  0  0  0  0  0  0  0  0  0  0  0
   -1.6210    1.2813   -0.0659 C   0  0  0  0  0  0  0  0  0  0  0  0
   -2.2354   -1.4333    0.0452 C   0  0  0  0  0  0  0  0  0  0  0  0
   -2.9458    0.8639   -0.0994 C   0  0  0  0  0  0  0  0  0  0  0  0
   -3.2554   -0.4916   -0.0441 C   0  0  0  0  0  0  0  0  0  0  0  0
  1  2  1  0  0  0  0
  1  3  1  0  0  0  0
  2  4  2  0  0  0  0
  4  5  1  0  0  0  0
  5  6  1  0  0  0  0
  5  7  2  0  0  0  0
  6  8  2  0  0  0  0
  9  7  1  0  0  0  0
  8 10  1  0  0  0  0
 10  9  2  0  0  0  0
M  END
>  <Name>
2-Propen-1-ol, 3-phenyl-

>  <IGC50>
2.92

>  <CAS>
104-54-1

>  <SET>
ws

>  <Species>
Tetrahymena pyriformis

>  <Test duration>
48h

$$$$

  Mrv1808 07152009202D          

  8  8  0  0  0  0            999 V2000
    1.4168   -1.2353    0.0000 C   0  0  0  0  0  0  0  0  0  0  0  0
    0.7009   -0.8252    0.0000 C   0  0  0  0  0  0  0  0  0  0  0  0
    1.4168   -2.0605    0.0000 C   0  0  0  0  0  0  0  0  0  0  0  0
    0.7009    0.0000    0.0000 O   0  0  0  0  0  0  0  0  0  0  0  0
    0.0000   -1.2353    0.0000 C   0  0  0  0  0  0  0  0  0  0  0  0
    0.7009   -2.4706    0.0000 C   0  0  0  0  0  0  0  0  0  0  0  0
    2.1400   -2.4856    0.0000 C   0  0  0  0  0  0  0  0  0  0  0  0
    0.0000   -2.0605    0.0000 C   0  0  0  0  0  0  0  0  0  0  0  0
  1  2  1  0  0  0  0
  1  3  2  0  0  0  0
  2  4  1  0  0  0  0
  2  5  2  0  0  0  0
  3  6  1  0  0  0  0
  3  7  1  0  0  0  0
  8  5  1  0  0  0  0
  8  6  2  0  0  0  0
M  END
>  <Name>
Phenol, 3-methyl-

>  <IGC50>
2.92

>  <CAS>
108-39-4

>  <SET>
ws

>  <Species>
Tetrahymena pyriformis

>  <Test duration>
48h

$$$$

  Mrv1808 07152009202D          

  8  8  0  0  0  0            999 V2000
    0.0000   -0.7161    0.0000 O   0  0  0  0  0  0  0  0  0  0  0  0
    0.8250   -0.7161    0.0000 C   0  0  0  0  0  0  0  0  0  0  0  0
    1.2375    0.0000    0.0000 C   0  0  0  0  0  0  0  0  0  0  0  0
    1.2375   -1.4289    0.0000 C   0  0  0  0  0  0  0  0  0  0  0  0
    2.0625    0.0000    0.0000 C   0  0  0  0  0  0  0  0  0  0  0  0
    2.0625   -1.4289    0.0000 C   0  0  0  0  0  0  0  0  0  0  0  0
    2.4750   -0.7161    0.0000 C   0  0  0  0  0  0  0  0  0  0  0  0
    3.3001   -0.7161    0.0000 N   0  0  0  0  0  0  0  0  0  0  0  0
  1  2  1  0  0  0  0
  2  3  2  0  0  0  0
  2  4  1  0  0  0  0
  3  5  1  0  0  0  0
  6  4  2  0  0  0  0
  5  7  2  0  0  0  0
  7  6  1  0  0  0  0
  7  8  1  0  0  0  0
M  END
>  <Name>
Phenol, 4-amino-

>  <IGC50>
2.92

>  <CAS>
123-30-8

>  <SET>
ws

>  <Species>
Tetrahymena pyriformis

>  <Test duration>
48h

$$$$

  Mrv1808 07152009203D          

 11 13  0  0  0  0            999 V2000
   -2.6926    0.0000   -0.0008 O   0  0  0  0  0  0  0  0  0  0  0  0
   -1.2723    0.0073   -0.0041 C   0  0  1  0  0  0  0  0  0  0  0  0
   -0.7502    1.2612    0.7200 C   0  0  0  0  0  0  0  0  0  0  0  0
   -0.7619   -1.2507    0.7213 C   0  0  0  0  0  0  0  0  0  0  0  0
   -0.7494    0.0040   -1.4508 C   0  0  0  0  0  0  0  0  0  0  0  0
    0.7873    1.2603    0.7293 C   0  0  1  0  0  0  0  0  0  0  0  0
    0.7754   -1.2643    0.7308 C   0  0  2  0  0  0  0  0  0  0  0  0
    0.7880   -0.0033   -1.4553 C   0  0  1  0  0  0  0  0  0  0  0  0
    1.2868   -0.0039    1.4515 C   0  0  0  0  0  0  0  0  0  0  0  0
    1.3003    1.2490   -0.7217 C   0  0  0  0  0  0  0  0  0  0  0  0
    1.2886   -1.2595   -0.7202 C   0  0  0  0  0  0  0  0  0  0  0  0
  1  2  1  0  0  0  0
  2  3  1  0  0  0  0
  2  4  1  0  0  0  0
  2  5  1  0  0  0  0
  6  3  1  0  0  0  0
  7  4  1  0  0  0  0
  8  5  1  0  0  0  0
  6  9  1  0  0  0  0
  6 10  1  0  0  0  0
  7  9  1  0  0  0  0
  7 11  1  0  0  0  0
  8 10  1  0  0  0  0
  8 11  1  0  0  0  0
M  END
>  <Name>
adamantan-1-ol

>  <IGC50>
2.92

>  <CAS>
768-95-6

>  <SET>
ws

>  <Species>
Tetrahymena pyriformis

>  <Test duration>
48h

$$$$

  Mrv1808 07152009202D          

  8  8  0  0  0  0            999 V2000
    0.3486    0.0835    0.0000 C   0  0  0  0  0  0  0  0  0  0  0  0
    0.2624   -0.7370    0.0000 C   0  0  0  0  0  0  0  0  0  0  0  0
   -0.4051    0.4191    0.0000 S   0  0  0  0  0  0  0  0  0  0  0  0
    1.0631    0.4960    0.0000 C   0  0  0  0  0  0  0  0  0  0  0  0
   -0.5446   -0.9085    0.0000 C   0  0  0  0  0  0  0  0  0  0  0  0
   -0.9571   -0.1940    0.0000 C   0  0  0  0  0  0  0  0  0  0  0  0
    1.7776    0.9085    0.0000 N   0  0  0  0  0  0  0  0  0  0  0  0
   -1.7776   -0.1078    0.0000 Cl  0  0  0  0  0  0  0  0  0  0  0  0
  1  2  2  0  0  0  0
  1  3  1  0  0  0  0
  1  4  1  0  0  0  0
  2  5  1  0  0  0  0
  6  3  1  0  0  0  0
  4  7  3  0  0  0  0
  5  6  2  0  0  0  0
  6  8  1  0  0  0  0
M  END
>  <Name>
5-chlorothiophene-2-carbonitrile

>  <IGC50>
2.92

>  <CAS>
50478-16-5

>  <SET>
ws

>  <Species>
Tetrahymena pyriformis

>  <Test duration>
48h

$$$$

  Mrv1808 07152009202D          

  9  8  0  0  0  0            999 V2000
    2.1751    1.2549    0.0000 C   0  0  0  0  0  0  0  0  0  0  0  0
    1.4640    0.8366    0.0000 C   0  0  0  0  0  0  0  0  0  0  0  0
    2.9280    0.8366    0.0000 C   0  0  0  0  0  0  0  0  0  0  0  0
    0.7529    1.2549    0.0000 O   0  0  0  0  0  0  0  0  0  0  0  0
    1.4640    0.0000    0.0000 O   0  0  0  0  0  0  0  0  0  0  0  0
    3.6391    1.2549    0.0000 C   0  0  0  0  0  0  0  0  0  0  0  0
    0.0000    0.8366    0.0000 C   0  0  0  0  0  0  0  0  0  0  0  0
    4.3502    0.8366    0.0000 C   0  0  0  0  0  0  0  0  0  0  0  0
    5.1031    1.2549    0.0000 Br  0  0  0  0  0  0  0  0  0  0  0  0
  1  2  1  0  0  0  0
  1  3  1  0  0  0  0
  2  4  1  0  0  0  0
  2  5  2  0  0  0  0
  3  6  1  0  0  0  0
  4  7  1  0  0  0  0
  6  8  1  0  0  0  0
  8  9  1  0  0  0  0
M  END
>  <Name>
Valeric acid, 5-bromo-, methyl ester (8CI)

>  <IGC50>
2.92

>  <CAS>
5454-83-1

>  <SET>
ws

>  <Species>
Tetrahymena pyriformis

>  <Test duration>
48h

$$$$

  Mrv1808 07152009202D          

 10 10  0  0  0  0            999 V2000
    0.0000    0.0000    0.0000 O   0  0  0  0  0  0  0  0  0  0  0  0
    0.4183    0.7111    0.0000 C   0  0  0  0  0  0  0  0  0  0  0  0
    1.2967    0.7111    0.0000 C   0  0  0  0  0  0  0  0  0  0  0  0
    1.7150    1.4222    0.0000 C   0  0  0  0  0  0  0  0  0  0  0  0
    1.7150    0.0000    0.0000 C   0  0  0  0  0  0  0  0  0  0  0  0
    2.5516    1.4222    0.0000 C   0  0  0  0  0  0  0  0  0  0  0  0
    2.5516    0.0000    0.0000 C   0  0  0  0  0  0  0  0  0  0  0  0
    2.9699    0.7111    0.0000 C   0  0  0  0  0  0  0  0  0  0  0  0
    3.8064    0.7111    0.0000 C   0  0  0  0  0  0  0  0  0  0  0  0
    4.2248    1.4222    0.0000 O   0  0  0  0  0  0  0  0  0  0  0  0
  1  2  2  0  0  0  0
  2  3  1  0  0  0  0
  4  3  2  0  0  0  0
  3  5  1  0  0  0  0
  6  4  1  0  0  0  0
  5  7  2  0  0  0  0
  8  6  2  0  0  0  0
  7  8  1  0  0  0  0
  8  9  1  0  0  0  0
  9 10  2  0  0  0  0
M  END
>  <Name>
Terephthaladehyde (8CI)

>  <IGC50>
2.914

>  <CAS>
623-27-8

>  <SET>
ws

>  <Species>
Tetrahymena pyriformis

>  <Test duration>
48h

$$$$

  Mrv1808 07152009202D          

 14 15  0  0  0  0            999 V2000
    3.5677   -0.8223    0.0000 C   0  0  0  0  0  0  0  0  0  0  0  0
    4.2830   -1.2335    0.0000 C   0  0  0  0  0  0  0  0  0  0  0  0
    2.8567   -1.2335    0.0000 C   0  0  0  0  0  0  0  0  0  0  0  0
    4.2830   -2.0601    0.0000 C   0  0  0  0  0  0  0  0  0  0  0  0
    2.8567   -2.0601    0.0000 C   0  0  0  0  0  0  0  0  0  0  0  0
    2.1415   -0.8223    0.0000 C   0  0  0  0  0  0  0  0  0  0  0  0
    3.5677   -2.4713    0.0000 C   0  0  0  0  0  0  0  0  0  0  0  0
    2.1415    0.0000    0.0000 O   0  0  0  0  0  0  0  0  0  0  0  0
    1.4262   -1.2335    0.0000 C   0  0  0  0  0  0  0  0  0  0  0  0
    1.4262   -2.0601    0.0000 C   0  0  0  0  0  0  0  0  0  0  0  0
    0.7153   -0.8223    0.0000 C   0  0  0  0  0  0  0  0  0  0  0  0
    0.7153   -2.4713    0.0000 C   0  0  0  0  0  0  0  0  0  0  0  0
    0.0000   -1.2335    0.0000 C   0  0  0  0  0  0  0  0  0  0  0  0
    0.0000   -2.0601    0.0000 N   0  0  0  0  0  0  0  0  0  0  0  0
  1  2  2  0  0  0  0
  1  3  1  0  0  0  0
  2  4  1  0  0  0  0
  5  3  2  0  0  0  0
  3  6  1  0  0  0  0
  4  7  2  0  0  0  0
  7  5  1  0  0  0  0
  6  8  2  0  0  0  0
  6  9  1  0  0  0  0
  9 10  2  0  0  0  0
  9 11  1  0  0  0  0
 10 12  1  0  0  0  0
 13 11  2  0  0  0  0
 12 14  2  0  0  0  0
 14 13  1  0  0  0  0
M  END
>  <Name>
Methanone, phenyl-4-pyridinyl-

>  <IGC50>
2.91

>  <CAS>
14548-46-0

>  <SET>
ws

>  <Species>
Tetrahymena pyriformis

>  <Test duration>
48h

$$$$

  Mrv1808 07152009203D          

 12 12  0  0  0  0            999 V2000
    0.2335    1.0216    0.0409 O   0  0  0  0  0  0  0  0  0  0  0  0
   -1.0059    0.4249   -0.3256 C   0  0  1  0  0  0  0  0  0  0  0  0
    1.3590    0.3230   -0.3097 C   0  0  0  0  0  0  0  0  0  0  0  0
   -1.1166   -0.9598    0.3112 C   0  0  0  0  0  0  0  0  0  0  0  0
   -2.1583    1.3336    0.0995 C   0  0  0  0  0  0  0  0  0  0  0  0
    1.4635   -0.4134   -1.2814 O   0  0  0  0  0  0  0  0  0  0  0  0
    2.4493    0.6080    0.6937 C   0  0  0  0  0  0  0  0  0  0  0  0
   -2.4709   -1.6013    0.0276 C   0  0  0  0  0  0  0  0  0  0  0  0
   -3.5127    0.6923   -0.1841 C   0  0  0  0  0  0  0  0  0  0  0  0
    3.6968   -0.0922    0.3663 C   0  0  0  0  0  0  0  0  0  0  0  0
   -3.6227   -0.6923    0.4503 C   0  0  0  0  0  0  0  0  0  0  0  0
    4.6849   -0.6445    0.1112 N   0  0  0  0  0  0  0  0  0  0  0  0
  1  2  1  0  0  0  0
  1  3  1  0  0  0  0
  2  4  1  0  0  0  0
  2  5  1  0  0  0  0
  6  3  2  0  0  0  0
  3  7  1  0  0  0  0
  4  8  1  0  0  0  0
  5  9  1  0  0  0  0
  7 10  1  0  0  0  0
  8 11  1  0  0  0  0
  9 11  1  0  0  0  0
 12 10  3  0  0  0  0
M  END
>  <Name>
cyclohexyl 2-cyanoacetate

>  <IGC50>
2.91

>  <CAS>
52688-11-6

>  <SET>
ws

>  <Species>
Tetrahymena pyriformis

>  <Test duration>
48h

$$$$

  Mrv1808 07152009202D          

 11 11  0  0  0  0            999 V2000
    0.0000    0.7529    0.0000 C   0  0  0  0  0  0  0  0  0  0  0  0
    0.4183    1.4640    0.0000 O   0  0  0  0  0  0  0  0  0  0  0  0
    1.2549    1.4640    0.0000 C   0  0  0  0  0  0  0  0  0  0  0  0
    1.6732    2.1752    0.0000 C   0  0  0  0  0  0  0  0  0  0  0  0
    1.6732    0.7529    0.0000 C   0  0  0  0  0  0  0  0  0  0  0  0
    2.5098    2.1752    0.0000 C   0  0  0  0  0  0  0  0  0  0  0  0
    2.5098    0.7529    0.0000 C   0  0  0  0  0  0  0  0  0  0  0  0
    2.9281    2.9281    0.0000 O   0  0  0  0  0  0  0  0  0  0  0  0
    2.9281    1.4640    0.0000 C   0  0  0  0  0  0  0  0  0  0  0  0
    2.9281    0.0000    0.0000 O   0  0  0  0  0  0  0  0  0  0  0  0
    3.7646    2.9281    0.0000 C   0  0  0  0  0  0  0  0  0  0  0  0
  1  2  1  0  0  0  0
  2  3  1  0  0  0  0
  4  3  2  0  0  0  0
  3  5  1  0  0  0  0
  6  4  1  0  0  0  0
  5  7  2  0  0  0  0
  6  8  1  0  0  0  0
  9  6  2  0  0  0  0
  7  9  1  0  0  0  0
  7 10  1  0  0  0  0
  8 11  1  0  0  0  0
M  END
>  <Name>
Phenol, 3,5-dimethoxy- (8CI)(9CI)

>  <IGC50>
2.91

>  <CAS>
500-99-2

>  <SET>
ws

>  <Species>
Tetrahymena pyriformis

>  <Test duration>
48h

$$$$

  Mrv1808 07152009202D          

  9  9  0  0  0  0            999 V2000
    0.0000   -0.7136    0.0000 N   0  0  0  0  0  0  0  0  0  0  0  0
    0.8250   -0.7136    0.0000 C   0  0  0  0  0  0  0  0  0  0  0  0
    1.6501   -0.7136    0.0000 C   0  0  0  0  0  0  0  0  0  0  0  0
    2.0625    0.0000    0.0000 C   0  0  0  0  0  0  0  0  0  0  0  0
    2.0625   -1.4273    0.0000 C   0  0  0  0  0  0  0  0  0  0  0  0
    2.8875    0.0000    0.0000 C   0  0  0  0  0  0  0  0  0  0  0  0
    2.8875   -1.4273    0.0000 C   0  0  0  0  0  0  0  0  0  0  0  0
    3.3001   -0.7136    0.0000 C   0  0  0  0  0  0  0  0  0  0  0  0
    4.1251   -0.7136    0.0000 C   0  0  0  0  0  0  0  0  0  0  0  0
  1  2  3  0  0  0  0
  2  3  1  0  0  0  0
  3  4  2  0  0  0  0
  3  5  1  0  0  0  0
  4  6  1  0  0  0  0
  7  5  2  0  0  0  0
  6  8  2  0  0  0  0
  8  7  1  0  0  0  0
  8  9  1  0  0  0  0
M  END
>  <Name>
Benzonitrile, 4-methyl-

>  <IGC50>
2.9

>  <CAS>
104-85-8

>  <SET>
ws

>  <Species>
Tetrahymena pyriformis

>  <Test duration>
48h

$$$$

  Mrv1808 07152009203D          

 13 13  0  0  0  0            999 V2000
    2.0968    1.1184   -0.0006 C   0  0  0  0  0  0  0  0  0  0  0  0
    0.9752    0.1336   -0.0004 C   0  0  0  0  0  0  0  0  0  0  0  0
    1.9384    2.3392   -0.0001 O   0  0  0  0  0  0  0  0  0  0  0  0
    3.4113    0.6657   -0.0014 N   0  0  0  0  0  0  0  0  0  0  0  0
    1.1448   -1.2645    0.0006 C   0  0  0  0  0  0  0  0  0  0  0  0
   -0.3284    0.6381   -0.0010 C   0  0  0  0  0  0  0  0  0  0  0  0
    0.0338   -2.1213    0.0013 C   0  0  0  0  0  0  0  0  0  0  0  0
    2.4199   -1.7594    0.0010 O   0  0  0  0  0  0  0  0  0  0  0  0
   -1.4401   -0.2046   -0.0001 C   0  0  0  0  0  0  0  0  0  0  0  0
   -1.2460   -1.5903    0.0010 C   0  0  0  0  0  0  0  0  0  0  0  0
   -2.8310    0.3403   -0.0003 C   0  0  0  0  0  0  0  0  0  0  0  0
   -3.7974   -0.4032   -0.0040 O   0  0  0  0  0  0  0  0  0  0  0  0
   -3.0103    1.8352    0.0040 C   0  0  0  0  0  0  0  0  0  0  0  0
  1  2  1  0  0  0  0
  1  3  2  0  0  0  0
  1  4  1  0  0  0  0
  2  5  1  0  0  0  0
  2  6  2  0  0  0  0
  5  7  2  0  0  0  0
  5  8  1  0  0  0  0
  9  6  1  0  0  0  0
  7 10  1  0  0  0  0
 10  9  2  0  0  0  0
  9 11  1  0  0  0  0
 11 12  2  0  0  0  0
 11 13  1  0  0  0  0
M  END
>  <Name>
Benzamide, 5-acetyl-2-hydroxy-

>  <IGC50>
2.9

>  <CAS>
40187-51-7

>  <SET>
ws

>  <Species>
Tetrahymena pyriformis

>  <Test duration>
48h

$$$$

  Mrv1808 07152009203D          

  8  8  0  0  0  0            999 V2000
   -0.4736   -0.2196    0.0007 C   0  0  0  0  0  0  0  0  0  0  0  0
    0.4326   -1.2928   -0.0003 C   0  0  0  0  0  0  0  0  0  0  0  0
   -0.0143    1.1009    0.0009 C   0  0  0  0  0  0  0  0  0  0  0  0
   -1.7996   -0.6065    0.0021 O   0  0  0  0  0  0  0  0  0  0  0  0
    1.7941   -1.0283   -0.0007 C   0  0  0  0  0  0  0  0  0  0  0  0
    1.3564    1.3407    0.0003 C   0  0  0  0  0  0  0  0  0  0  0  0
   -2.7712    0.4094   -0.0021 C   0  0  0  0  0  0  0  0  0  0  0  0
    2.2589    0.2850   -0.0005 C   0  0  0  0  0  0  0  0  0  0  0  0
  1  2  1  0  0  0  0
  1  3  2  0  0  0  0
  1  4  1  0  0  0  0
  2  5  2  0  0  0  0
  6  3  1  0  0  0  0
  4  7  1  0  0  0  0
  5  8  1  0  0  0  0
  8  6  2  0  0  0  0
M  END
>  <Name>
Benzene, methoxy-

>  <IGC50>
2.9

>  <CAS>
100-66-3

>  <SET>
ws

>  <Species>
Tetrahymena pyriformis

>  <Test duration>
48h

$$$$

  Mrv1808 07152009202D          

  8  8  0  0  0  0            999 V2000
    0.0000    1.4438    0.0000 F   0  0  0  0  0  0  0  0  0  0  0  0
    0.8250    1.4438    0.0000 C   0  0  0  0  0  0  0  0  0  0  0  0
    1.2375    0.7012    0.0000 C   0  0  0  0  0  0  0  0  0  0  0  0
    1.2375    2.1450    0.0000 C   0  0  0  0  0  0  0  0  0  0  0  0
    2.0625    0.7012    0.0000 C   0  0  0  0  0  0  0  0  0  0  0  0
    2.0625    2.1450    0.0000 C   0  0  0  0  0  0  0  0  0  0  0  0
    2.4750    0.0000    0.0000 N   0  0  0  0  0  0  0  0  0  0  0  0
    2.4750    1.4438    0.0000 C   0  0  0  0  0  0  0  0  0  0  0  0
  1  2  1  0  0  0  0
  2  3  2  0  0  0  0
  4  2  1  0  0  0  0
  3  5  1  0  0  0  0
  6  4  2  0  0  0  0
  5  7  1  0  0  0  0
  5  8  2  0  0  0  0
  8  6  1  0  0  0  0
M  END
>  <Name>
Aniline, m-fluoro- (8CI)

>  <IGC50>
2.9

>  <CAS>
372-19-0

>  <SET>
ws

>  <Species>
Tetrahymena pyriformis

>  <Test duration>
48h

$$$$

  Mrv1808 07152009203D          

 11 11  0  0  0  0            999 V2000
    1.9739   -1.3139    0.3802 S   0  0  0  0  0  0  0  0  0  0  0  0
    0.7477   -0.2157   -0.0921 C   0  0  0  0  0  0  0  0  0  0  0  0
    3.1834   -0.1110    0.2319 C   0  0  0  0  0  0  0  0  0  0  0  0
   -0.6025   -0.6722   -0.1651 C   0  0  0  0  0  0  0  0  0  0  0  0
    1.2511    1.0390   -0.3562 C   0  0  0  0  0  0  0  0  0  0  0  0
    2.6623    1.0996   -0.1686 C   0  0  0  0  0  0  0  0  0  0  0  0
   -0.8962   -1.8675   -0.4428 O   0  0  0  0  0  0  0  0  0  0  0  0
   -1.7864    0.2711    0.0937 C   0  0  1  0  0  0  0  0  0  0  0  0
   -1.3625    1.5272    0.3840 F   0  0  0  0  0  0  0  0  0  0  0  0
   -2.5938    0.3598   -0.9937 F   0  0  0  0  0  0  0  0  0  0  0  0
   -2.5771   -0.1165    1.1287 F   0  0  0  0  0  0  0  0  0  0  0  0
  1  2  1  0  0  0  0
  1  3  1  0  0  0  0
  2  4  1  0  0  0  0
  2  5  2  0  0  0  0
  6  3  2  0  0  0  0
  7  4  2  0  0  0  0
  4  8  1  0  0  0  0
  5  6  1  0  0  0  0
  9  8  1  0  0  0  0
 10  8  1  0  0  0  0
 11  8  1  0  0  0  0
M  END
>  <Name>
2,2,2-trifluoro-1-thiophen-2-ylethanone

>  <IGC50>
2.9

>  <CAS>
651-70-7

>  <SET>
ws

>  <Species>
Tetrahymena pyriformis

>  <Test duration>
48h

$$$$

  Mrv1808 07152009202D          

  9 10  0  0  0  0            999 V2000
    0.4856   -0.1564    0.0000 C   0  0  0  0  0  0  0  0  0  0  0  0
    0.0000   -0.8228    0.0000 C   0  0  0  0  0  0  0  0  0  0  0  0
    1.2680   -0.4101    0.0000 C   0  0  0  0  0  0  0  0  0  0  0  0
    0.4856   -1.4919    0.0000 O   0  0  0  0  0  0  0  0  0  0  0  0
    1.2680   -1.2356    0.0000 C   0  0  0  0  0  0  0  0  0  0  0  0
    1.9829    0.0000    0.0000 C   0  0  0  0  0  0  0  0  0  0  0  0
    1.9829   -1.6483    0.0000 C   0  0  0  0  0  0  0  0  0  0  0  0
    2.6978   -0.4101    0.0000 C   0  0  0  0  0  0  0  0  0  0  0  0
    2.6978   -1.2356    0.0000 C   0  0  0  0  0  0  0  0  0  0  0  0
  1  2  2  0  0  0  0
  1  3  1  0  0  0  0
  2  4  1  0  0  0  0
  5  3  2  0  0  0  0
  3  6  1  0  0  0  0
  4  5  1  0  0  0  0
  5  7  1  0  0  0  0
  6  8  2  0  0  0  0
  9  7  2  0  0  0  0
  8  9  1  0  0  0  0
M  END
>  <Name>
Benzofuran

>  <IGC50>
2.89

>  <CAS>
271-89-6

>  <SET>
ws

>  <Species>
Tetrahymena pyriformis

>  <Test duration>
48h

$$$$

  Mrv1808 07152009202D          

  6  6  0  0  0  0            999 V2000
    0.4112    0.0000    0.0000 C   0  0  0  0  0  0  0  0  0  0  0  0
    1.2404    0.0000    0.0000 S   0  0  0  0  0  0  0  0  0  0  0  0
    0.0000   -0.7151    0.0000 C   0  0  0  0  0  0  0  0  0  0  0  0
    1.6516   -0.7151    0.0000 C   0  0  0  0  0  0  0  0  0  0  0  0
    0.4112   -1.4303    0.0000 S   0  0  0  0  0  0  0  0  0  0  0  0
    1.2404   -1.4303    0.0000 C   0  0  0  0  0  0  0  0  0  0  0  0
  1  2  1  0  0  0  0
  1  3  1  0  0  0  0
  2  4  1  0  0  0  0
  5  3  1  0  0  0  0
  4  6  1  0  0  0  0
  6  5  1  0  0  0  0
M  END
>  <Name>
1,4-Dithiane

>  <IGC50>
2.89

>  <CAS>
505-29-3

>  <SET>
ws

>  <Species>
Tetrahymena pyriformis

>  <Test duration>
48h

$$$$

  Mrv1808 07152009202D          

  9  9  0  0  0  0            999 V2000
    0.0000    0.7111    0.0000 N   0  0  0  0  0  0  0  0  0  0  0  0
    0.4183    1.4221    0.0000 C   0  0  0  0  0  0  0  0  0  0  0  0
    0.3765    0.0000    0.0000 O   0  0  0  0  0  0  0  0  0  0  0  0
    1.2967    1.4221    0.0000 C   0  0  0  0  0  0  0  0  0  0  0  0
    1.7150    2.1332    0.0000 C   0  0  0  0  0  0  0  0  0  0  0  0
    1.7150    0.7111    0.0000 C   0  0  0  0  0  0  0  0  0  0  0  0
    2.5515    2.1332    0.0000 C   0  0  0  0  0  0  0  0  0  0  0  0
    2.5515    0.7111    0.0000 C   0  0  0  0  0  0  0  0  0  0  0  0
    2.9698    1.4221    0.0000 C   0  0  0  0  0  0  0  0  0  0  0  0
  1  2  2  0  0  0  0
  1  3  1  0  0  0  0
  2  4  1  0  0  0  0
  5  4  2  0  0  0  0
  4  6  1  0  0  0  0
  7  5  1  0  0  0  0
  6  8  2  0  0  0  0
  9  7  2  0  0  0  0
  8  9  1  0  0  0  0
M  END
>  <Name>
Benzaldehyde, oxime, (Z)-

>  <IGC50>
2.89

>  <CAS>
622-32-2

>  <SET>
ws

>  <Species>
Tetrahymena pyriformis

>  <Test duration>
48h

$$$$

  Mrv1808 07152009202D          

 11 11  0  0  0  0            999 V2000
    2.8875    1.4290    0.0000 C   0  0  0  0  0  0  0  0  0  0  0  0
    2.4750    0.7144    0.0000 C   0  0  0  0  0  0  0  0  0  0  0  0
    2.4750    2.1434    0.0000 O   0  0  0  0  0  0  0  0  0  0  0  0
    2.8875    0.0000    0.0000 C   0  0  0  0  0  0  0  0  0  0  0  0
    1.6500    0.7144    0.0000 C   0  0  0  0  0  0  0  0  0  0  0  0
    3.7125    0.0000    0.0000 C   0  0  0  0  0  0  0  0  0  0  0  0
    1.2375    0.0000    0.0000 C   0  0  0  0  0  0  0  0  0  0  0  0
    1.2375    1.4290    0.0000 C   0  0  0  0  0  0  0  0  0  0  0  0
    0.4125    0.0000    0.0000 C   0  0  0  0  0  0  0  0  0  0  0  0
    0.4125    1.4290    0.0000 C   0  0  0  0  0  0  0  0  0  0  0  0
    0.0000    0.7144    0.0000 C   0  0  0  0  0  0  0  0  0  0  0  0
  1  2  1  0  0  0  0
  1  3  1  0  0  0  0
  2  4  1  0  0  0  0
  2  5  1  0  0  0  0
  4  6  1  0  0  0  0
  5  7  1  0  0  0  0
  5  8  2  0  0  0  0
  7  9  2  0  0  0  0
 10  8  1  0  0  0  0
  9 11  1  0  0  0  0
 11 10  2  0  0  0  0
M  END
>  <Name>
b-Ethylphenethyl alcohol

>  <IGC50>
2.89

>  <CAS>
89104-46-1

>  <SET>
ws

>  <Species>
Tetrahymena pyriformis

>  <Test duration>
48h

$$$$

  Mrv1808 07152009202D          

  6  6  0  0  0  0            999 V2000
    1.4289   -1.2375    0.0000 C   0  0  0  0  0  0  0  0  0  0  0  0
    0.7145   -1.6500    0.0000 C   0  0  0  0  0  0  0  0  0  0  0  0
    1.4289   -0.4125    0.0000 C   0  0  0  0  0  0  0  0  0  0  0  0
    0.0000   -1.2375    0.0000 C   0  0  0  0  0  0  0  0  0  0  0  0
    0.7145    0.0000    0.0000 C   0  0  0  0  0  0  0  0  0  0  0  0
    0.0000   -0.4125    0.0000 C   0  0  0  0  0  0  0  0  0  0  0  0
  1  2  2  0  0  0  0
  1  3  1  0  0  0  0
  2  4  1  0  0  0  0
  5  3  2  0  0  0  0
  4  6  2  0  0  0  0
  6  5  1  0  0  0  0
M  END
>  <Name>
Benzene, pure

>  <IGC50>
2.88

>  <CAS>
71-43-2

>  <SET>
ws

>  <Species>
Tetrahymena pyriformis

>  <Test duration>
48h

$$$$

  Mrv1808 07152009202D          

 10 11  0  0  0  0            999 V2000
    2.1446    0.0000    0.0000 C   0  0  0  0  0  0  0  0  0  0  0  0
    1.4297   -0.4118    0.0000 C   0  0  0  0  0  0  0  0  0  0  0  0
    2.8595   -0.4118    0.0000 C   0  0  0  0  0  0  0  0  0  0  0  0
    1.4297   -1.2382    0.0000 C   0  0  0  0  0  0  0  0  0  0  0  0
    0.7148    0.0000    0.0000 C   0  0  0  0  0  0  0  0  0  0  0  0
    2.8595   -1.2382    0.0000 C   0  0  0  0  0  0  0  0  0  0  0  0
    2.1446   -1.6499    0.0000 C   0  0  0  0  0  0  0  0  0  0  0  0
    0.7148   -1.6499    0.0000 C   0  0  0  0  0  0  0  0  0  0  0  0
    0.0000   -0.4118    0.0000 C   0  0  0  0  0  0  0  0  0  0  0  0
    0.0000   -1.2382    0.0000 C   0  0  0  0  0  0  0  0  0  0  0  0
  1  2  2  0  0  0  0
  1  3  1  0  0  0  0
  2  4  1  0  0  0  0
  2  5  1  0  0  0  0
  6  3  2  0  0  0  0
  4  7  2  0  0  0  0
  4  8  1  0  0  0  0
  9  5  2  0  0  0  0
  7  6  1  0  0  0  0
  8 10  2  0  0  0  0
 10  9  1  0  0  0  0
M  END
>  <Name>
Naphthalene, pure

>  <IGC50>
2.88

>  <CAS>
91-20-3

>  <SET>
ws

>  <Species>
Tetrahymena pyriformis

>  <Test duration>
48h

$$$$

  Mrv1808 07152009202D          

 12 12  0  0  0  0            999 V2000
    1.2375    1.4025    0.0000 C   0  0  0  0  0  0  0  0  0  0  0  0
    1.6501    0.7012    0.0000 C   0  0  0  0  0  0  0  0  0  0  0  0
    0.4125    1.4025    0.0000 C   0  0  0  0  0  0  0  0  0  0  0  0
    1.6501    2.1451    0.0000 C   0  0  0  0  0  0  0  0  0  0  0  0
    2.4751    0.7012    0.0000 C   0  0  0  0  0  0  0  0  0  0  0  0
    0.0000    2.1451    0.0000 O   0  0  0  0  0  0  0  0  0  0  0  0
    0.0000    0.7012    0.0000 C   0  0  0  0  0  0  0  0  0  0  0  0
    2.4751    2.1451    0.0000 C   0  0  0  0  0  0  0  0  0  0  0  0
    2.8876    0.0000    0.0000 O   0  0  0  0  0  0  0  0  0  0  0  0
    2.8876    1.4025    0.0000 C   0  0  0  0  0  0  0  0  0  0  0  0
    3.7126    0.0000    0.0000 C   0  0  0  0  0  0  0  0  0  0  0  0
    3.7126    1.4025    0.0000 O   0  0  0  0  0  0  0  0  0  0  0  0
  1  2  2  0  0  0  0
  1  3  1  0  0  0  0
  4  1  1  0  0  0  0
  2  5  1  0  0  0  0
  3  6  2  0  0  0  0
  3  7  1  0  0  0  0
  8  4  2  0  0  0  0
  5  9  1  0  0  0  0
  5 10  2  0  0  0  0
 10  8  1  0  0  0  0
  9 11  1  0  0  0  0
 10 12  1  0  0  0  0
M  END
>  <Name>
Ethanone, 1-(4-hydroxy-3-methoxyphenyl)-

>  <IGC50>
2.88

>  <CAS>
498-02-2

>  <SET>
ws

>  <Species>
Tetrahymena pyriformis

>  <Test duration>
48h

$$$$

  Mrv1808 07152009203D          

 10  9  0  0  0  0            999 V2000
    3.2845    2.6689    2.2143 O   0  0  0  0  0  0  0  0  0  0  0  0
    4.5200    3.1987    1.7295 C   0  0  0  0  0  0  0  0  0  0  0  0
    2.1278    3.0619    1.6074 C   0  0  0  0  0  0  0  0  0  0  0  0
    5.6364    2.5606    2.5687 C   0  0  2  0  0  0  0  0  0  0  0  0
    2.1726    3.8399    0.6742 O   0  0  0  0  0  0  0  0  0  0  0  0
    0.9079    2.4369    2.2226 C   0  0  0  0  0  0  0  0  0  0  0  0
    6.8745    3.4613    2.5461 C   0  0  0  0  0  0  0  0  0  0  0  0
    5.9711    1.1435    2.0918 C   0  0  0  0  0  0  0  0  0  0  0  0
    7.9374    2.9607    3.4997 C   0  0  0  0  0  0  0  0  0  0  0  0
    6.3174    1.0451    0.6221 C   0  0  0  0  0  0  0  0  0  0  0  0
  1  2  1  0  0  0  0
  1  3  1  0  0  0  0
  2  4  1  0  0  0  0
  3  5  2  0  0  0  0
  3  6  1  0  0  0  0
  4  7  1  0  0  0  0
  4  8  1  0  0  0  0
  7  9  1  0  0  0  0
  8 10  1  0  0  0  0
M  END
>  <Name>
Acetic acid, 2-ethylbutyl ester

>  <IGC50>
2.88

>  <CAS>
10031-87-5

>  <SET>
ws

>  <Species>
Tetrahymena pyriformis

>  <Test duration>
48h

$$$$

  Mrv1808 07152009202D          

 14 13  0  0  0  0            999 V2000
    6.4387   -1.2426    0.0000 C   0  0  0  0  0  0  0  0  0  0  0  0
    6.4387   -0.4185    0.0000 C   0  0  0  0  0  0  0  0  0  0  0  0
    5.7240    0.0000    0.0000 O   0  0  0  0  0  0  0  0  0  0  0  0
    5.0093   -0.4185    0.0000 C   0  0  0  0  0  0  0  0  0  0  0  0
    5.0093   -1.2426    0.0000 O   0  0  0  0  0  0  0  0  0  0  0  0
    4.2946    0.0000    0.0000 C   0  0  0  0  0  0  0  0  0  0  0  0
    3.5799   -0.4185    0.0000 C   0  0  0  0  0  0  0  0  0  0  0  0
    3.5799   -1.2426    0.0000 C   0  0  0  0  0  0  0  0  0  0  0  0
    2.8588   -1.6547    0.0000 C   0  0  0  0  0  0  0  0  0  0  0  0
    2.1441   -1.2426    0.0000 C   0  0  0  0  0  0  0  0  0  0  0  0
    2.1441   -0.4185    0.0000 O   0  0  0  0  0  0  0  0  0  0  0  0
    1.4294   -1.6547    0.0000 O   0  0  0  0  0  0  0  0  0  0  0  0
    0.7147   -1.2426    0.0000 C   0  0  0  0  0  0  0  0  0  0  0  0
    0.0000   -1.6547    0.0000 C   0  0  0  0  0  0  0  0  0  0  0  0
  1  2  1  0  0  0  0
  2  3  1  0  0  0  0
  3  4  1  0  0  0  0
  4  5  2  0  0  0  0
  4  6  1  0  0  0  0
  6  7  1  0  0  0  0
  7  8  1  0  0  0  0
  8  9  1  0  0  0  0
  9 10  1  0  0  0  0
 10 11  2  0  0  0  0
 10 12  1  0  0  0  0
 12 13  1  0  0  0  0
 13 14  1  0  0  0  0
M  END
>  <Name>
Hexanedioic acid, diethyl ester

>  <IGC50>
2.874

>  <CAS>
141-28-6

>  <SET>
ws

>  <Species>
Tetrahymena pyriformis

>  <Test duration>
48h

$$$$

  Mrv1808 07152009202D          

  9  9  0  0  0  0            999 V2000
    0.7013    1.2375    0.0000 C   0  0  0  0  0  0  0  0  0  0  0  0
    1.4437    1.6500    0.0000 C   0  0  0  0  0  0  0  0  0  0  0  0
    0.7013    0.4125    0.0000 C   0  0  0  0  0  0  0  0  0  0  0  0
    2.1450    1.2375    0.0000 C   0  0  0  0  0  0  0  0  0  0  0  0
    1.4437    0.0000    0.0000 C   0  0  0  0  0  0  0  0  0  0  0  0
    0.0000    0.0000    0.0000 F   0  0  0  0  0  0  0  0  0  0  0  0
    2.1450    0.4125    0.0000 C   0  0  0  0  0  0  0  0  0  0  0  0
    2.8463    1.6500    0.0000 C   0  0  0  0  0  0  0  0  0  0  0  0
    3.5888    1.2375    0.0000 O   0  0  0  0  0  0  0  0  0  0  0  0
  1  2  2  0  0  0  0
  3  1  1  0  0  0  0
  2  4  1  0  0  0  0
  5  3  2  0  0  0  0
  3  6  1  0  0  0  0
  4  7  2  0  0  0  0
  4  8  1  0  0  0  0
  7  5  1  0  0  0  0
  8  9  2  0  0  0  0
M  END
>  <Name>
Benzaldehyde, p-fluoro- (8CI)

>  <IGC50>
2.873

>  <CAS>
459-57-4

>  <SET>
ws

>  <Species>
Tetrahymena pyriformis

>  <Test duration>
48h

$$$$

  Mrv1808 07152009203D          

  8  7  0  0  0  0            999 V2000
    2.9644    1.6070    1.5099 C   0  0  0  0  0  0  0  0  0  0  0  0
    4.1315    1.5421    0.8610 C   0  0  0  0  0  0  0  0  0  0  0  0
    1.8089    0.7932    1.0942 C   0  0  0  0  0  0  0  0  0  0  0  0
    5.3060    2.3663    1.2487 C   0  0  0  0  0  0  0  0  0  0  0  0
    0.6983    0.9555    1.8544 O   0  0  0  0  0  0  0  0  0  0  0  0
    1.7047    0.0000    0.1722 O   0  0  0  0  0  0  0  0  0  0  0  0
    6.5779    1.5313    1.2816 C   0  0  0  0  0  0  0  0  0  0  0  0
    7.7775    2.3762    1.6466 C   0  0  0  0  0  0  0  0  0  0  0  0
  1  2  2  0  0  0  0
  1  3  1  0  0  0  0
  2  4  1  0  0  0  0
  3  5  1  0  0  0  0
  3  6  2  0  0  0  0
  4  7  1  0  0  0  0
  7  8  1  0  0  0  0
M  END
>  <Name>
2-Hexenoic acid, (2E)-

>  <IGC50>
2.872

>  <CAS>
13419-69-7

>  <SET>
ws

>  <Species>
Tetrahymena pyriformis

>  <Test duration>
48h

$$$$

  Mrv1808 07152009203D          

 11 11  0  0  0  0            999 V2000
   -2.5667   -0.1929   -0.0002 C   0  0  0  0  0  0  0  0  0  0  0  0
   -3.4231    1.0472    0.0024 C   0  0  0  0  0  0  0  0  0  0  0  0
   -3.0810   -1.2989   -0.0024 O   0  0  0  0  0  0  0  0  0  0  0  0
   -1.0852   -0.0255   -0.0001 C   0  0  0  0  0  0  0  0  0  0  0  0
   -0.4904    1.2418   -0.0017 C   0  0  0  0  0  0  0  0  0  0  0  0
   -0.2653   -1.1568    0.0014 C   0  0  0  0  0  0  0  0  0  0  0  0
    0.8871    1.3822   -0.0014 C   0  0  0  0  0  0  0  0  0  0  0  0
    1.1195   -1.0387    0.0016 C   0  0  0  0  0  0  0  0  0  0  0  0
    1.6978    0.2343    0.0004 C   0  0  0  0  0  0  0  0  0  0  0  0
    3.0489    0.5006    0.0012 O   0  0  0  0  0  0  0  0  0  0  0  0
    3.9294   -0.5969   -0.0011 C   0  0  0  0  0  0  0  0  0  0  0  0
  1  2  1  0  0  0  0
  1  3  2  0  0  0  0
  1  4  1  0  0  0  0
  4  5  1  0  0  0  0
  4  6  2  0  0  0  0
  5  7  2  0  0  0  0
  8  6  1  0  0  0  0
  7  9  1  0  0  0  0
  9  8  2  0  0  0  0
  9 10  1  0  0  0  0
 10 11  1  0  0  0  0
M  END
>  <Name>
Ethanone, 1-(4-methoxyphenyl)-

>  <IGC50>
2.87

>  <CAS>
100-06-1

>  <SET>
ws

>  <Species>
Tetrahymena pyriformis

>  <Test duration>
48h

$$$$

  Mrv1808 07152009202D          

  8  8  0  0  0  0            999 V2000
    2.4721   -1.4279    0.0000 N   0  0  0  0  0  0  0  0  0  0  0  0
    1.6471   -1.4279    0.0000 C   0  0  0  0  0  0  0  0  0  0  0  0
    2.8846   -0.7154    0.0000 C   0  0  0  0  0  0  0  0  0  0  0  0
    1.2375   -0.7154    0.0000 C   0  0  0  0  0  0  0  0  0  0  0  0
    2.4721    0.0000    0.0000 C   0  0  0  0  0  0  0  0  0  0  0  0
    0.4125   -0.7154    0.0000 C   0  0  0  0  0  0  0  0  0  0  0  0
    1.6471    0.0000    0.0000 C   0  0  0  0  0  0  0  0  0  0  0  0
    0.0000    0.0000    0.0000 O   0  0  0  0  0  0  0  0  0  0  0  0
  1  2  2  0  0  0  0
  1  3  1  0  0  0  0
  2  4  1  0  0  0  0
  5  3  2  0  0  0  0
  4  6  1  0  0  0  0
  4  7  2  0  0  0  0
  7  5  1  0  0  0  0
  6  8  2  0  0  0  0
M  END
>  <Name>
3-Pyridinecarboxaldehyde

>  <IGC50>
2.87

>  <CAS>
500-22-1

>  <SET>
ws

>  <Species>
Tetrahymena pyriformis

>  <Test duration>
48h

$$$$

  Mrv1808 07152009202D          

 10 10  0  0  0  0            999 V2000
    2.4721   -1.4279    0.0000 C   0  0  0  0  0  0  0  0  0  0  0  0
    2.8846   -2.1403    0.0000 O   0  0  0  0  0  0  0  0  0  0  0  0
    2.8846   -0.7125    0.0000 O   0  0  0  0  0  0  0  0  0  0  0  0
    1.6471   -1.4279    0.0000 C   0  0  0  0  0  0  0  0  0  0  0  0
    1.2375   -2.1403    0.0000 C   0  0  0  0  0  0  0  0  0  0  0  0
    1.2375   -0.7125    0.0000 C   0  0  0  0  0  0  0  0  0  0  0  0
    0.4125   -2.1403    0.0000 C   0  0  0  0  0  0  0  0  0  0  0  0
    0.4125   -0.7125    0.0000 C   0  0  0  0  0  0  0  0  0  0  0  0
    0.0000   -1.4279    0.0000 C   0  0  0  0  0  0  0  0  0  0  0  0
    0.0000    0.0000    0.0000 Cl  0  0  0  0  0  0  0  0  0  0  0  0
  1  2  2  0  0  0  0
  1  3  1  0  0  0  0
  1  4  1  0  0  0  0
  4  5  2  0  0  0  0
  4  6  1  0  0  0  0
  5  7  1  0  0  0  0
  8  6  2  0  0  0  0
  7  9  2  0  0  0  0
  9  8  1  0  0  0  0
  8 10  1  0  0  0  0
M  END
>  <Name>
Benzoic acid, 3-chloro-

>  <IGC50>
2.87

>  <CAS>
535-80-8

>  <SET>
ws

>  <Species>
Tetrahymena pyriformis

>  <Test duration>
48h

$$$$

  Mrv1808 07152009203D          

 11 11  0  0  0  0            999 V2000
    0.0006    2.9940   -0.0006 Br  0  0  0  0  0  0  0  0  0  0  0  0
    0.0003    1.1035    0.0004 C   0  0  0  0  0  0  0  0  0  0  0  0
   -1.2025    0.4057    0.0004 C   0  0  0  0  0  0  0  0  0  0  0  0
    1.2027    0.4053    0.0002 C   0  0  0  0  0  0  0  0  0  0  0  0
   -2.3839    1.0357    0.0002 F   0  0  0  0  0  0  0  0  0  0  0  0
   -1.1490   -0.9788    0.0000 C   0  0  0  0  0  0  0  0  0  0  0  0
    2.3843    1.0348   -0.0001 F   0  0  0  0  0  0  0  0  0  0  0  0
    1.1485   -0.9793    0.0002 C   0  0  0  0  0  0  0  0  0  0  0  0
   -2.3027   -1.6642   -0.0005 F   0  0  0  0  0  0  0  0  0  0  0  0
   -0.0004   -1.6917    0.0000 N   0  0  0  0  0  0  0  0  0  0  0  0
    2.3021   -1.6649   -0.0002 F   0  0  0  0  0  0  0  0  0  0  0  0
  1  2  1  0  0  0  0
  2  3  2  0  0  0  0
  2  4  1  0  0  0  0
  5  3  1  0  0  0  0
  3  6  1  0  0  0  0
  7  4  1  0  0  0  0
  4  8  2  0  0  0  0
  9  6  1  0  0  0  0
 10  6  2  0  0  0  0
 11  8  1  0  0  0  0
 10  8  1  0  0  0  0
M  END
>  <Name>
4-bromanyl-2,3,5,6-tetrakis(fluoranyl)pyridine

>  <IGC50>
2.87

>  <CAS>
3511-90-8

>  <SET>
ws

>  <Species>
Tetrahymena pyriformis

>  <Test duration>
48h

$$$$

  Mrv1808 07152009202D          

 10  9  0  0  0  0            999 V2000
    2.8862    1.2549    0.0000 C   0  0  0  0  0  0  0  0  0  0  0  0
    2.1751    0.8366    0.0000 C   0  0  0  0  0  0  0  0  0  0  0  0
    3.5973    0.8366    0.0000 C   0  0  0  0  0  0  0  0  0  0  0  0
    1.4221    1.2549    0.0000 O   0  0  0  0  0  0  0  0  0  0  0  0
    4.3502    1.2549    0.0000 C   0  0  0  0  0  0  0  0  0  0  0  0
    0.7111    0.8366    0.0000 C   0  0  0  0  0  0  0  0  0  0  0  0
    5.0612    0.8366    0.0000 C   0  0  0  0  0  0  0  0  0  0  0  0
    0.7111    0.0000    0.0000 C   0  0  0  0  0  0  0  0  0  0  0  0
    0.0000    1.2549    0.0000 O   0  0  0  0  0  0  0  0  0  0  0  0
    5.7724    1.2549    0.0000 Cl  0  0  0  0  0  0  0  0  0  0  0  0
  1  2  1  0  0  0  0
  1  3  1  0  0  0  0
  2  4  1  0  0  0  0
  3  5  1  0  0  0  0
  4  6  1  0  0  0  0
  5  7  1  0  0  0  0
  6  8  1  0  0  0  0
  6  9  2  0  0  0  0
  7 10  1  0  0  0  0
M  END
>  <Name>
1-Pentanol, 5-chloro-, acetate

>  <IGC50>
2.869

>  <CAS>
20395-28-2

>  <SET>
ws

>  <Species>
Tetrahymena pyriformis

>  <Test duration>
48h

$$$$

  Mrv1808 07152009203D          

  8  8  0  0  0  0            999 V2000
    1.0642    2.1577    0.0535 C   0  0  0  0  0  0  0  0  0  0  0  0
    2.2567    2.1572    0.0535 C   0  0  0  0  0  0  0  0  0  0  0  0
    3.6740    2.1588    0.0535 C   0  0  0  0  0  0  0  0  0  0  0  0
    4.3725    3.3708    0.0832 C   0  0  0  0  0  0  0  0  0  0  0  0
    4.3760    0.9493    0.0235 C   0  0  0  0  0  0  0  0  0  0  0  0
    5.7622    3.3672    0.0831 C   0  0  0  0  0  0  0  0  0  0  0  0
    5.7663    0.9574    0.0240 C   0  0  0  0  0  0  0  0  0  0  0  0
    6.4587    2.1640    0.0542 C   0  0  0  0  0  0  0  0  0  0  0  0
  1  2  3  0  0  0  0
  2  3  1  0  0  0  0
  3  4  2  0  0  0  0
  5  3  1  0  0  0  0
  4  6  1  0  0  0  0
  7  5  2  0  0  0  0
  6  8  2  0  0  0  0
  8  7  1  0  0  0  0
M  END
>  <Name>
ethynylbenzene

>  <IGC50>
2.86

>  <CAS>
536-74-3

>  <SET>
ws

>  <Species>
Tetrahymena pyriformis

>  <Test duration>
48h

$$$$

  Mrv1808 07152009202D          

 11 11  0  0  0  0            999 V2000
    3.6712    0.7013    0.0000 C   0  0  0  0  0  0  0  0  0  0  0  0
    4.0837    0.0000    0.0000 O   0  0  0  0  0  0  0  0  0  0  0  0
    2.8875    0.7013    0.0000 C   0  0  0  0  0  0  0  0  0  0  0  0
    2.4750    1.4437    0.0000 C   0  0  0  0  0  0  0  0  0  0  0  0
    2.4750    0.0000    0.0000 C   0  0  0  0  0  0  0  0  0  0  0  0
    1.6500    1.4437    0.0000 C   0  0  0  0  0  0  0  0  0  0  0  0
    1.6500    0.0000    0.0000 C   0  0  0  0  0  0  0  0  0  0  0  0
    1.2375    2.1450    0.0000 O   0  0  0  0  0  0  0  0  0  0  0  0
    1.2375    0.7013    0.0000 C   0  0  0  0  0  0  0  0  0  0  0  0
    0.4125    0.7013    0.0000 O   0  0  0  0  0  0  0  0  0  0  0  0
    0.0000    0.0000    0.0000 C   0  0  0  0  0  0  0  0  0  0  0  0
  1  2  2  0  0  0  0
  1  3  1  0  0  0  0
  3  4  2  0  0  0  0
  5  3  1  0  0  0  0
  4  6  1  0  0  0  0
  7  5  2  0  0  0  0
  6  8  1  0  0  0  0
  6  9  2  0  0  0  0
  9  7  1  0  0  0  0
  9 10  1  0  0  0  0
 10 11  1  0  0  0  0
M  END
>  <Name>
p-Anisaldehyde, 3-hydroxy- (8CI)

>  <IGC50>
2.86

>  <CAS>
621-59-0

>  <SET>
ws

>  <Species>
Tetrahymena pyriformis

>  <Test duration>
48h

$$$$

  Mrv1808 07152009202D          

  8  8  0  0  0  0            999 V2000
    1.4222    0.4183    0.0000 C   0  0  0  0  0  0  0  0  0  0  0  0
    1.4222    1.2130    0.0000 C   0  0  0  0  0  0  0  0  0  0  0  0
    0.7111    0.0000    0.0000 N   0  0  0  0  0  0  0  0  0  0  0  0
    2.1752    0.0000    0.0000 C   0  0  0  0  0  0  0  0  0  0  0  0
    0.7111    1.6313    0.0000 C   0  0  0  0  0  0  0  0  0  0  0  0
    0.0000    0.4183    0.0000 C   0  0  0  0  0  0  0  0  0  0  0  0
    2.8862    0.4601    0.0000 O   0  0  0  0  0  0  0  0  0  0  0  0
    0.0000    1.2130    0.0000 C   0  0  0  0  0  0  0  0  0  0  0  0
  2  1  2  0  0  0  0
  1  3  1  0  0  0  0
  1  4  1  0  0  0  0
  5  2  1  0  0  0  0
  3  6  2  0  0  0  0
  4  7  2  0  0  0  0
  8  5  2  0  0  0  0
  6  8  1  0  0  0  0
M  END
>  <Name>
pyridine-2-carbaldehyde

>  <IGC50>
2.86

>  <CAS>
1121-60-4

>  <SET>
ws

>  <Species>
Tetrahymena pyriformis

>  <Test duration>
48h

$$$$

  Mrv1808 07152009202D          

 12 12  0  0  0  0            999 V2000
    2.1751    2.0915    0.0000 C   0  0  0  0  0  0  0  0  0  0  0  0
    2.8862    2.5098    0.0000 C   0  0  0  0  0  0  0  0  0  0  0  0
    2.1751    1.2967    0.0000 C   0  0  0  0  0  0  0  0  0  0  0  0
    1.4222    2.5098    0.0000 C   0  0  0  0  0  0  0  0  0  0  0  0
    3.5973    2.1333    0.0000 O   0  0  0  0  0  0  0  0  0  0  0  0
    2.8862    3.3882    0.0000 O   0  0  0  0  0  0  0  0  0  0  0  0
    1.4222    0.8366    0.0000 C   0  0  0  0  0  0  0  0  0  0  0  0
    0.7111    2.0915    0.0000 C   0  0  0  0  0  0  0  0  0  0  0  0
    4.3503    2.5098    0.0000 C   0  0  0  0  0  0  0  0  0  0  0  0
    0.7111    1.2967    0.0000 C   0  0  0  0  0  0  0  0  0  0  0  0
    1.4222    0.0000    0.0000 O   0  0  0  0  0  0  0  0  0  0  0  0
    0.0000    2.5098    0.0000 O   0  0  0  0  0  0  0  0  0  0  0  0
  1  2  1  0  0  0  0
  1  3  2  0  0  0  0
  4  1  1  0  0  0  0
  2  5  1  0  0  0  0
  2  6  2  0  0  0  0
  3  7  1  0  0  0  0
  8  4  2  0  0  0  0
  5  9  1  0  0  0  0
  7 10  2  0  0  0  0
  7 11  1  0  0  0  0
 10  8  1  0  0  0  0
  8 12  1  0  0  0  0
M  END
>  <Name>
Benzoic acid, 3,5-dihydroxy-, methyl ester

>  <IGC50>
2.86

>  <CAS>
2150-44-9

>  <SET>
ws

>  <Species>
Tetrahymena pyriformis

>  <Test duration>
48h

$$$$

  Mrv1808 07152009202D          

  9  9  0  0  0  0            999 V2000
    0.0000    0.0000    0.0000 C   0  0  0  0  0  0  0  0  0  0  0  0
    0.4113   -0.7151    0.0000 O   0  0  0  0  0  0  0  0  0  0  0  0
    1.2339   -0.7151    0.0000 C   0  0  0  0  0  0  0  0  0  0  0  0
    1.6453    0.0000    0.0000 C   0  0  0  0  0  0  0  0  0  0  0  0
    1.6453   -1.4266    0.0000 C   0  0  0  0  0  0  0  0  0  0  0  0
    2.4716    0.0000    0.0000 C   0  0  0  0  0  0  0  0  0  0  0  0
    2.4716   -1.4266    0.0000 C   0  0  0  0  0  0  0  0  0  0  0  0
    2.8829   -0.7151    0.0000 C   0  0  0  0  0  0  0  0  0  0  0  0
    3.7055   -0.7151    0.0000 O   0  0  0  0  0  0  0  0  0  0  0  0
  1  2  1  0  0  0  0
  2  3  1  0  0  0  0
  3  4  2  0  0  0  0
  3  5  1  0  0  0  0
  4  6  1  0  0  0  0
  7  5  2  0  0  0  0
  6  8  2  0  0  0  0
  8  7  1  0  0  0  0
  8  9  1  0  0  0  0
M  END
>  <Name>
Phenol, 4-methoxy-

>  <IGC50>
2.86

>  <CAS>
150-76-5

>  <SET>
ws

>  <Species>
Tetrahymena pyriformis

>  <Test duration>
48h

$$$$

  Mrv1808 07152009202D          

  9  8  0  0  0  0            999 V2000
    1.2375   -1.4279    0.0000 C   0  0  0  0  0  0  0  0  0  0  0  0
    0.8250   -0.7162    0.0000 C   0  0  0  0  0  0  0  0  0  0  0  0
    0.0000   -0.7162    0.0000 O   0  0  0  0  0  0  0  0  0  0  0  0
    1.2375    0.0000    0.0000 C   0  0  0  0  0  0  0  0  0  0  0  0
    2.0626    0.0000    0.0000 C   0  0  0  0  0  0  0  0  0  0  0  0
    2.4705   -0.7162    0.0000 C   0  0  0  0  0  0  0  0  0  0  0  0
    3.2955   -0.7162    0.0000 C   0  0  0  0  0  0  0  0  0  0  0  0
    3.7080   -1.4279    0.0000 C   0  0  0  0  0  0  0  0  0  0  0  0
    4.5330   -1.4279    0.0000 C   0  0  0  0  0  0  0  0  0  0  0  0
  1  2  1  0  0  0  0
  2  3  2  0  0  0  0
  2  4  1  0  0  0  0
  4  5  1  0  0  0  0
  5  6  1  0  0  0  0
  6  7  1  0  0  0  0
  7  8  1  0  0  0  0
  8  9  1  0  0  0  0
M  END
>  <Name>
2-Octanone

>  <IGC50>
2.855

>  <CAS>
111-13-7

>  <SET>
ws

>  <Species>
Tetrahymena pyriformis

>  <Test duration>
48h

$$$$

  Mrv1808 07152009202D          

 11 11  0  0  0  0            999 V2000
    1.2786    0.7424    0.0000 C   0  0  0  0  0  0  0  0  0  0  0  0
    1.6911    0.0000    0.0000 O   0  0  0  0  0  0  0  0  0  0  0  0
    1.6911    1.4436    0.0000 C   0  0  0  0  0  0  0  0  0  0  0  0
    1.2786    2.1449    0.0000 C   0  0  0  0  0  0  0  0  0  0  0  0
    2.5161    1.4436    0.0000 C   0  0  0  0  0  0  0  0  0  0  0  0
    0.4125    2.1449    0.0000 N   0  0  0  0  0  0  0  0  0  0  0  0
    1.6911    2.8873    0.0000 C   0  0  0  0  0  0  0  0  0  0  0  0
    2.9285    2.1449    0.0000 C   0  0  0  0  0  0  0  0  0  0  0  0
    0.0412    1.4436    0.0000 O   0  0  0  0  0  0  0  0  0  0  0  0
    0.0000    2.8873    0.0000 O   0  0  0  0  0  0  0  0  0  0  0  0
    2.5161    2.8873    0.0000 C   0  0  0  0  0  0  0  0  0  0  0  0
  1  2  1  0  0  0  0
  1  3  1  0  0  0  0
  4  3  2  0  0  0  0
  3  5  1  0  0  0  0
  4  6  1  0  0  0  0
  7  4  1  0  0  0  0
  5  8  2  0  0  0  0
  6  9  2  0  0  0  0
  6 10  2  0  0  0  0
 11  7  2  0  0  0  0
  8 11  1  0  0  0  0
M  END
>  <Name>
Benzenemethanol, 2-nitro- (9CI)

>  <IGC50>
2.85

>  <CAS>
612-25-9

>  <SET>
ws

>  <Species>
Tetrahymena pyriformis

>  <Test duration>
48h

$$$$

  Mrv1808 07152009203D          

  8  7  0  0  0  0            999 V2000
   -0.0489    0.3540    0.0001 C   0  0  0  0  0  0  0  0  0  0  0  0
    1.1989   -0.4371    0.0001 C   0  0  0  0  0  0  0  0  0  0  0  0
   -0.1768    1.5632    0.0002 O   0  0  0  0  0  0  0  0  0  0  0  0
   -1.1597   -0.4567   -0.0001 O   0  0  0  0  0  0  0  0  0  0  0  0
    2.3980    0.1550    0.0004 C   0  0  0  0  0  0  0  0  0  0  0  0
   -2.4241    0.1100   -0.0006 C   0  0  0  0  0  0  0  0  0  0  0  0
    3.6642   -0.6070   -0.0002 C   0  0  0  0  0  0  0  0  0  0  0  0
   -3.4513   -0.7400    0.0004 C   0  0  0  0  0  0  0  0  0  0  0  0
  1  2  1  0  0  0  0
  1  3  2  0  0  0  0
  1  4  1  0  0  0  0
  2  5  2  0  0  0  0
  4  6  1  0  0  0  0
  5  7  1  0  0  0  0
  6  8  2  0  0  0  0
M  END
>  <Name>
2-Butenoic acid, ethenyl ester

>  <IGC50>
2.85

>  <CAS>
14861-06-4

>  <SET>
ws

>  <Species>
Tetrahymena pyriformis

>  <Test duration>
48h

$$$$

  Mrv1808 07152009202D          

  8  8  0  0  0  0            999 V2000
    0.0000   -1.4295    0.0000 N   0  0  0  0  0  0  0  0  0  0  0  0
    0.8250   -1.4295    0.0000 C   0  0  0  0  0  0  0  0  0  0  0  0
    1.2388   -0.7160    0.0000 C   0  0  0  0  0  0  0  0  0  0  0  0
    1.2388   -2.1455    0.0000 C   0  0  0  0  0  0  0  0  0  0  0  0
    2.0638   -0.7160    0.0000 C   0  0  0  0  0  0  0  0  0  0  0  0
    0.8250    0.0000    0.0000 C   0  0  0  0  0  0  0  0  0  0  0  0
    2.0638   -2.1455    0.0000 C   0  0  0  0  0  0  0  0  0  0  0  0
    2.4775   -1.4295    0.0000 C   0  0  0  0  0  0  0  0  0  0  0  0
  1  2  1  0  0  0  0
  2  3  2  0  0  0  0
  2  4  1  0  0  0  0
  3  5  1  0  0  0  0
  3  6  1  0  0  0  0
  7  4  2  0  0  0  0
  5  8  2  0  0  0  0
  8  7  1  0  0  0  0
M  END
>  <Name>
Benzenamine, 2-methyl-

>  <IGC50>
2.84

>  <CAS>
95-53-4

>  <SET>
ws

>  <Species>
Tetrahymena pyriformis

>  <Test duration>
48h

$$$$

  Mrv1808 07152009202D          

  9  9  0  0  0  0            999 V2000
    2.8594   -1.6499    0.0000 C   0  0  0  0  0  0  0  0  0  0  0  0
    2.1445   -1.2381    0.0000 C   0  0  0  0  0  0  0  0  0  0  0  0
    1.4297   -1.6499    0.0000 C   0  0  0  0  0  0  0  0  0  0  0  0
    2.1445   -0.4118    0.0000 C   0  0  0  0  0  0  0  0  0  0  0  0
    0.7148   -1.2381    0.0000 C   0  0  0  0  0  0  0  0  0  0  0  0
    1.4297    0.0000    0.0000 C   0  0  0  0  0  0  0  0  0  0  0  0
    2.8594    0.0000    0.0000 C   0  0  0  0  0  0  0  0  0  0  0  0
    0.0000   -1.6499    0.0000 N   0  0  0  0  0  0  0  0  0  0  0  0
    0.7148   -0.4118    0.0000 C   0  0  0  0  0  0  0  0  0  0  0  0
  1  2  1  0  0  0  0
  2  3  2  0  0  0  0
  2  4  1  0  0  0  0
  3  5  1  0  0  0  0
  6  4  2  0  0  0  0
  4  7  1  0  0  0  0
  5  8  1  0  0  0  0
  5  9  2  0  0  0  0
  9  6  1  0  0  0  0
M  END
>  <Name>
Benzenamine, 3,4-dimethyl-

>  <IGC50>
2.84

>  <CAS>
95-64-7

>  <SET>
ws

>  <Species>
Tetrahymena pyriformis

>  <Test duration>
48h

$$$$

  Mrv1808 07152009202D          

  8  8  0  0  0  0            999 V2000
    0.0000   -0.7161    0.0000 O   0  0  0  0  0  0  0  0  0  0  0  0
    0.8250   -0.7161    0.0000 C   0  0  0  0  0  0  0  0  0  0  0  0
    1.2375    0.0000    0.0000 C   0  0  0  0  0  0  0  0  0  0  0  0
    1.2375   -1.4289    0.0000 C   0  0  0  0  0  0  0  0  0  0  0  0
    2.0625    0.0000    0.0000 C   0  0  0  0  0  0  0  0  0  0  0  0
    2.0625   -1.4289    0.0000 C   0  0  0  0  0  0  0  0  0  0  0  0
    2.4750   -0.7161    0.0000 C   0  0  0  0  0  0  0  0  0  0  0  0
    3.3001   -0.7161    0.0000 C   0  0  0  0  0  0  0  0  0  0  0  0
  1  2  1  0  0  0  0
  2  3  2  0  0  0  0
  2  4  1  0  0  0  0
  3  5  1  0  0  0  0
  6  4  2  0  0  0  0
  5  7  2  0  0  0  0
  7  6  1  0  0  0  0
  7  8  1  0  0  0  0
M  END
>  <Name>
Phenol, 4-methyl-

>  <IGC50>
2.84

>  <CAS>
106-44-5

>  <SET>
ws

>  <Species>
Tetrahymena pyriformis

>  <Test duration>
48h

$$$$

  Mrv1808 07152009202D          

 11 11  0  0  0  0            999 V2000
    4.2828   -1.6489    0.0000 O   0  0  0  0  0  0  0  0  0  0  0  0
    3.5676   -1.2377    0.0000 C   0  0  0  0  0  0  0  0  0  0  0  0
    2.8567   -1.6489    0.0000 C   0  0  0  0  0  0  0  0  0  0  0  0
    3.5676   -0.4111    0.0000 C   0  0  0  0  0  0  0  0  0  0  0  0
    2.1414   -1.2377    0.0000 C   0  0  0  0  0  0  0  0  0  0  0  0
    2.8567    0.0000    0.0000 C   0  0  0  0  0  0  0  0  0  0  0  0
    1.4262   -1.6489    0.0000 N   0  0  0  0  0  0  0  0  0  0  0  0
    2.1414   -0.4111    0.0000 C   0  0  0  0  0  0  0  0  0  0  0  0
    0.7152   -1.2377    0.0000 C   0  0  0  0  0  0  0  0  0  0  0  0
    0.7152   -0.4111    0.0000 O   0  0  0  0  0  0  0  0  0  0  0  0
    0.0000   -1.6489    0.0000 C   0  0  0  0  0  0  0  0  0  0  0  0
  1  2  1  0  0  0  0
  2  3  2  0  0  0  0
  2  4  1  0  0  0  0
  3  5  1  0  0  0  0
  6  4  2  0  0  0  0
  5  7  1  0  0  0  0
  5  8  2  0  0  0  0
  8  6  1  0  0  0  0
  7  9  1  0  0  0  0
  9 10  2  0  0  0  0
  9 11  1  0  0  0  0
M  END
>  <Name>
Acetamide, N-(3-hydroxyphenyl)-

>  <IGC50>
2.84

>  <CAS>
621-42-1

>  <SET>
ws

>  <Species>
Tetrahymena pyriformis

>  <Test duration>
48h

$$$$

  Mrv1808 07152009202D          

 10  9  0  0  0  0            999 V2000
    2.8862    1.2549    0.0000 O   0  0  0  0  0  0  0  0  0  0  0  0
    2.1751    0.8366    0.0000 C   0  0  0  0  0  0  0  0  0  0  0  0
    3.5974    0.8366    0.0000 C   0  0  0  0  0  0  0  0  0  0  0  0
    1.4221    1.2549    0.0000 C   0  0  0  0  0  0  0  0  0  0  0  0
    2.1751    0.0000    0.0000 O   0  0  0  0  0  0  0  0  0  0  0  0
    4.3503    1.2549    0.0000 C   0  0  0  0  0  0  0  0  0  0  0  0
    0.7111    0.8366    0.0000 C   0  0  0  0  0  0  0  0  0  0  0  0
    5.0613    0.8366    0.0000 C   0  0  0  0  0  0  0  0  0  0  0  0
    0.0000    1.2549    0.0000 C   0  0  0  0  0  0  0  0  0  0  0  0
    5.7724    1.2549    0.0000 C   0  0  0  0  0  0  0  0  0  0  0  0
  1  2  1  0  0  0  0
  1  3  1  0  0  0  0
  2  4  1  0  0  0  0
  2  5  2  0  0  0  0
  3  6  1  0  0  0  0
  4  7  2  0  0  0  0
  6  8  1  0  0  0  0
  7  9  1  0  0  0  0
  8 10  1  0  0  0  0
M  END
>  <Name>
Crotonicacid, butyl ester (6CI,7CI,8CI)

>  <IGC50>
2.84

>  <CAS>
7299-91-4

>  <SET>
ws

>  <Species>
Tetrahymena pyriformis

>  <Test duration>
48h

$$$$

  Mrv1808 07152009202D          

 16 16  0  0  0  0            999 V2000
    2.4543    3.5588    0.0000 O   0  0  0  0  0  0  0  0  0  0  0  0
    2.0371    2.8470    0.0000 C   0  0  0  0  0  0  0  0  0  0  0  0
    2.4543    2.1353    0.0000 C   0  0  0  0  0  0  0  0  0  0  0  0
    1.2272    2.8470    0.0000 C   0  0  0  0  0  0  0  0  0  0  0  0
    2.0371    1.4236    0.0000 C   0  0  0  0  0  0  0  0  0  0  0  0
    3.2889    2.1353    0.0000 N   0  3  0  0  0  0  0  0  0  0  0  0
    0.8100    2.1353    0.0000 C   0  0  0  0  0  0  0  0  0  0  0  0
    0.8100    3.5588    0.0000 N   0  3  0  0  0  0  0  0  0  0  0  0
    1.2272    1.4236    0.0000 C   0  0  0  0  0  0  0  0  0  0  0  0
    3.7061    2.8470    0.0000 O   0  5  0  0  0  0  0  0  0  0  0  0
    3.7061    1.4236    0.0000 O   0  0  0  0  0  0  0  0  0  0  0  0
    0.0000    3.5588    0.0000 O   0  0  0  0  0  0  0  0  0  0  0  0
    1.2272    4.2706    0.0000 O   0  5  0  0  0  0  0  0  0  0  0  0
    0.8100    0.7118    0.0000 N   0  3  0  0  0  0  0  0  0  0  0  0
    0.0000    0.7118    0.0000 O   0  5  0  0  0  0  0  0  0  0  0  0
    1.2272    0.0000    0.0000 O   0  0  0  0  0  0  0  0  0  0  0  0
  1  2  1  0  0  0  0
  2  3  2  0  0  0  0
  2  4  1  0  0  0  0
  3  5  1  0  0  0  0
  3  6  1  0  0  0  0
  7  4  2  0  0  0  0
  4  8  1  0  0  0  0
  5  9  2  0  0  0  0
  6 10  1  0  0  0  0
  6 11  2  0  0  0  0
  9  7  1  0  0  0  0
  8 12  2  0  0  0  0
  8 13  1  0  0  0  0
  9 14  1  0  0  0  0
 14 15  1  0  0  0  0
 14 16  2  0  0  0  0
M  CHG  6   6   1   8   1  10  -1  13  -1  14   1  15  -1
M  END
>  <Name>
2,4,6-Trinitrophenol

>  <IGC50>
2.84

>  <CAS>
29663-11-4

>  <SET>
ws

>  <Species>
Tetrahymena pyriformis

>  <Test duration>
48h

$$$$

  Mrv1808 07152009202D          

 11 11  0  0  0  0            999 V2000
    1.2375    1.4290    0.0000 C   0  0  0  0  0  0  0  0  0  0  0  0
    1.6500    0.7144    0.0000 C   0  0  0  0  0  0  0  0  0  0  0  0
    0.4125    1.4290    0.0000 C   0  0  0  0  0  0  0  0  0  0  0  0
    1.6500    2.1434    0.0000 O   0  0  0  0  0  0  0  0  0  0  0  0
    2.4750    0.7144    0.0000 C   0  0  0  0  0  0  0  0  0  0  0  0
    0.0000    0.7144    0.0000 C   0  0  0  0  0  0  0  0  0  0  0  0
    2.8875    1.4290    0.0000 C   0  0  0  0  0  0  0  0  0  0  0  0
    2.8875    0.0000    0.0000 C   0  0  0  0  0  0  0  0  0  0  0  0
    3.7125    1.4290    0.0000 C   0  0  0  0  0  0  0  0  0  0  0  0
    3.7125    0.0000    0.0000 C   0  0  0  0  0  0  0  0  0  0  0  0
    4.1250    0.7144    0.0000 C   0  0  0  0  0  0  0  0  0  0  0  0
  1  2  1  0  0  0  0
  1  3  1  0  0  0  0
  1  4  1  0  0  0  0
  2  5  1  0  0  0  0
  3  6  1  0  0  0  0
  5  7  1  0  0  0  0
  5  8  2  0  0  0  0
  7  9  2  0  0  0  0
 10  8  1  0  0  0  0
  9 11  1  0  0  0  0
 11 10  2  0  0  0  0
M  END
>  <Name>
(�)-a-Ethylphenethyl alcohol

>  <IGC50>
2.84

>  <CAS>
120055-09-6

>  <SET>
ws

>  <Species>
Tetrahymena pyriformis

>  <Test duration>
48h

$$$$

  Mrv1808 07152009203D          

  7  6  0  0  0  0            999 V2000
   -2.2989    0.7377   -0.0004 C   0  0  0  0  0  0  0  0  0  0  0  0
   -1.1808   -0.2620    0.0000 C   0  0  0  0  0  0  0  0  0  0  0  0
    0.2576    0.2969    0.0003 C   0  0  0  0  0  0  0  0  0  0  0  0
   -1.3790   -1.4600    0.0001 O   0  0  0  0  0  0  0  0  0  0  0  0
    1.3698   -0.7215    0.0004 C   0  0  0  0  0  0  0  0  0  0  0  0
    0.4401    1.4965    0.0004 O   0  0  0  0  0  0  0  0  0  0  0  0
    2.7592   -0.1292   -0.0006 C   0  0  0  0  0  0  0  0  0  0  0  0
  1  2  1  0  0  0  0
  2  3  1  0  0  0  0
  2  4  2  0  0  0  0
  3  5  1  0  0  0  0
  3  6  2  0  0  0  0
  5  7  1  0  0  0  0
M  END
>  <Name>
2,3-Pentanedione

>  <IGC50>
2.84

>  <CAS>
600-14-6

>  <SET>
ws

>  <Species>
Tetrahymena pyriformis

>  <Test duration>
48h

$$$$

  Mrv1808 07152009202D          

  8  8  0  0  0  0            999 V2000
    0.0000   -1.4295    0.0000 N   0  0  0  0  0  0  0  0  0  0  0  0
    0.8250   -1.4295    0.0000 C   0  0  0  0  0  0  0  0  0  0  0  0
    1.2388   -0.7160    0.0000 C   0  0  0  0  0  0  0  0  0  0  0  0
    1.2388   -2.1455    0.0000 C   0  0  0  0  0  0  0  0  0  0  0  0
    0.8250    0.0000    0.0000 Cl  0  0  0  0  0  0  0  0  0  0  0  0
    2.0638   -0.7160    0.0000 C   0  0  0  0  0  0  0  0  0  0  0  0
    2.0638   -2.1455    0.0000 C   0  0  0  0  0  0  0  0  0  0  0  0
    2.4775   -1.4295    0.0000 C   0  0  0  0  0  0  0  0  0  0  0  0
  1  2  1  0  0  0  0
  2  3  2  0  0  0  0
  2  4  1  0  0  0  0
  3  5  1  0  0  0  0
  3  6  1  0  0  0  0
  7  4  2  0  0  0  0
  6  8  2  0  0  0  0
  8  7  1  0  0  0  0
M  END
>  <Name>
Benzenamine, 2-chloro-

>  <IGC50>
2.83

>  <CAS>
95-51-2

>  <SET>
ws

>  <Species>
Tetrahymena pyriformis

>  <Test duration>
48h

$$$$

  Mrv1808 07152009202D          

 11 11  0  0  0  0            999 V2000
    2.8050    0.4125    0.0000 C   0  0  0  0  0  0  0  0  0  0  0  0
    2.8050    1.2787    0.0000 C   0  0  0  0  0  0  0  0  0  0  0  0
    2.1450    0.0000    0.0000 N   0  0  0  0  0  0  0  0  0  0  0  0
    3.5475    0.0000    0.0000 O   0  0  0  0  0  0  0  0  0  0  0  0
    2.1450    1.6088    0.0000 C   0  0  0  0  0  0  0  0  0  0  0  0
    1.4438    0.4125    0.0000 C   0  0  0  0  0  0  0  0  0  0  0  0
    1.4438    1.2787    0.0000 C   0  0  0  0  0  0  0  0  0  0  0  0
    2.1450    2.4338    0.0000 C   0  0  0  0  0  0  0  0  0  0  0  0
    0.7425    1.6500    0.0000 N   0  0  0  0  0  0  0  0  0  0  0  0
    0.7425    2.4750    0.0000 O   0  0  0  0  0  0  0  0  0  0  0  0
    0.0000    1.2787    0.0000 O   0  0  0  0  0  0  0  0  0  0  0  0
  2  1  2  0  0  0  0
  1  3  1  0  0  0  0
  1  4  1  0  0  0  0
  5  2  1  0  0  0  0
  3  6  2  0  0  0  0
  7  5  2  0  0  0  0
  5  8  1  0  0  0  0
  6  7  1  0  0  0  0
  7  9  1  0  0  0  0
  9 10  2  0  0  0  0
  9 11  2  0  0  0  0
M  END
>  <Name>
2-Pyridinol,4-methyl-5-nitro- (8CI)

>  <IGC50>
2.83

>  <CAS>
21901-41-7

>  <SET>
ws

>  <Species>
Tetrahymena pyriformis

>  <Test duration>
48h

$$$$

  Mrv1808 07152009202D          

  7  6  0  0  0  0            999 V2000
    0.0000   -0.4112    0.0000 C   0  0  0  0  0  0  0  0  0  0  0  0
    0.7153    0.0000    0.0000 C   0  0  0  0  0  0  0  0  0  0  0  0
    1.4263   -0.4112    0.0000 C   0  0  0  0  0  0  0  0  0  0  0  0
    2.1416    0.0000    0.0000 C   0  0  0  0  0  0  0  0  0  0  0  0
    2.8569   -0.4112    0.0000 C   0  0  0  0  0  0  0  0  0  0  0  0
    3.5679    0.0000    0.0000 C   0  0  0  0  0  0  0  0  0  0  0  0
    4.2832   -0.4112    0.0000 O   0  0  0  0  0  0  0  0  0  0  0  0
  1  2  1  0  0  0  0
  2  3  1  0  0  0  0
  3  4  1  0  0  0  0
  4  5  1  0  0  0  0
  5  6  1  0  0  0  0
  6  7  2  0  0  0  0
M  END
>  <Name>
Hexaldehyde

>  <IGC50>
2.827

>  <CAS>
66-25-1

>  <SET>
ws

>  <Species>
Tetrahymena pyriformis

>  <Test duration>
48h

$$$$

  Mrv1808 07152009202D          

  9  9  0  0  0  0            999 V2000
    2.4787    0.0000    0.0000 N   0  0  0  0  0  0  0  0  0  0  0  0
    2.8912   -0.7172    0.0000 C   0  0  0  0  0  0  0  0  0  0  0  0
    1.6500    0.0000    0.0000 C   0  0  0  0  0  0  0  0  0  0  0  0
    3.7162   -0.7172    0.0000 C   0  0  0  0  0  0  0  0  0  0  0  0
    2.4787   -1.4307    0.0000 C   0  0  0  0  0  0  0  0  0  0  0  0
    1.2375   -0.7172    0.0000 C   0  0  0  0  0  0  0  0  0  0  0  0
    1.6500   -1.4307    0.0000 C   0  0  0  0  0  0  0  0  0  0  0  0
    0.4125   -0.7172    0.0000 C   0  0  0  0  0  0  0  0  0  0  0  0
    0.0000    0.0000    0.0000 C   0  0  0  0  0  0  0  0  0  0  0  0
  1  2  2  0  0  0  0
  1  3  1  0  0  0  0
  2  4  1  0  0  0  0
  2  5  1  0  0  0  0
  6  3  2  0  0  0  0
  5  7  2  0  0  0  0
  7  6  1  0  0  0  0
  6  8  1  0  0  0  0
  8  9  1  0  0  0  0
M  END
>  <Name>
Pyridine, 5-ethyl-2-methyl-

>  <IGC50>
2.82

>  <CAS>
104-90-5

>  <SET>
ws

>  <Species>
Tetrahymena pyriformis

>  <Test duration>
48h

$$$$

  Mrv1808 07152009203D          

 12 12  0  0  0  0            999 V2000
   -2.0262    1.3827   -0.5988 O   0  0  0  0  0  0  0  0  0  0  0  0
   -1.1567    0.3604   -0.3662 C   0  0  0  0  0  0  0  0  0  0  0  0
   -2.2395    2.3074    0.4661 C   0  0  0  0  0  0  0  0  0  0  0  0
    0.1962    0.5297   -0.6612 C   0  0  0  0  0  0  0  0  0  0  0  0
   -1.6093   -0.8489    0.1617 C   0  0  0  0  0  0  0  0  0  0  0  0
    1.0962   -0.5102   -0.4282 C   0  0  0  0  0  0  0  0  0  0  0  0
   -2.9282   -1.0265    0.4526 O   0  0  0  0  0  0  0  0  0  0  0  0
   -0.7092   -1.8887    0.3947 C   0  0  0  0  0  0  0  0  0  0  0  0
    2.5425   -0.3289   -0.7432 C   0  0  0  0  0  0  0  0  0  0  0  0
    0.6434   -1.7194    0.0997 C   0  0  0  0  0  0  0  0  0  0  0  0
    3.3456    0.2294    0.4357 C   0  0  0  0  0  0  0  0  0  0  0  0
    2.8454    1.5131    0.7870 O   0  0  0  0  0  0  0  0  0  0  0  0
  1  2  1  0  0  0  0
  1  3  1  0  0  0  0
  4  2  1  0  0  0  0
  2  5  2  0  0  0  0
  6  4  2  0  0  0  0
  7  5  1  0  0  0  0
  5  8  1  0  0  0  0
  6  9  1  0  0  0  0
  6 10  1  0  0  0  0
 10  8  2  0  0  0  0
  9 11  1  0  0  0  0
 12 11  1  0  0  0  0
M  END
>  <Name>
4-(2-hydroxyethyl)-2-methoxyphenol

>  <IGC50>
2.82

>  <CAS>
2380-78-1

>  <SET>
ws

>  <Species>
Tetrahymena pyriformis

>  <Test duration>
48h

$$$$

  Mrv1808 07152009202D          

  5  4  0  0  0  0            999 V2000
    0.0000   -0.4118    0.0000 Br  0  0  0  0  0  0  0  0  0  0  0  0
    0.7149    0.0000    0.0000 C   0  0  0  0  0  0  0  0  0  0  0  0
    1.4298   -0.4118    0.0000 C   0  0  0  0  0  0  0  0  0  0  0  0
    2.1447    0.0000    0.0000 C   0  0  0  0  0  0  0  0  0  0  0  0
    2.8595   -0.4118    0.0000 C   0  0  0  0  0  0  0  0  0  0  0  0
  1  2  1  0  0  0  0
  2  3  1  0  0  0  0
  3  4  1  0  0  0  0
  4  5  1  0  0  0  0
M  END
>  <Name>
Butane, 1-bromo-

>  <IGC50>
2.82

>  <CAS>
109-65-9

>  <SET>
ws

>  <Species>
Tetrahymena pyriformis

>  <Test duration>
48h

$$$$

  Mrv1808 07152009202D          

 11 11  0  0  0  0            999 V2000
    1.7289   -2.3635    0.0000 C   0  0  0  0  0  0  0  0  0  0  0  0
    2.1411   -1.6488    0.0000 C   0  0  0  0  0  0  0  0  0  0  0  0
    1.4264   -1.2366    0.0000 C   0  0  0  0  0  0  0  0  0  0  0  0
    2.8558   -2.0610    0.0000 O   0  0  0  0  0  0  0  0  0  0  0  0
    2.5533   -0.9371    0.0000 C   0  0  0  0  0  0  0  0  0  0  0  0
    0.7147   -1.6488    0.0000 C   0  0  0  0  0  0  0  0  0  0  0  0
    1.4264   -0.4122    0.0000 C   0  0  0  0  0  0  0  0  0  0  0  0
    2.9655   -0.2224    0.0000 C   0  0  0  0  0  0  0  0  0  0  0  0
    0.0000   -1.2366    0.0000 C   0  0  0  0  0  0  0  0  0  0  0  0
    0.7147    0.0000    0.0000 C   0  0  0  0  0  0  0  0  0  0  0  0
    0.0000   -0.4122    0.0000 C   0  0  0  0  0  0  0  0  0  0  0  0
  1  2  1  0  0  0  0
  2  3  1  0  0  0  0
  2  4  1  0  0  0  0
  2  5  1  0  0  0  0
  3  6  2  0  0  0  0
  3  7  1  0  0  0  0
  5  8  3  0  0  0  0
  6  9  1  0  0  0  0
 10  7  2  0  0  0  0
  9 11  2  0  0  0  0
 11 10  1  0  0  0  0
M  END
>  <Name>
Benzenemethanol, alpha-ethynyl-alpha-methyl-

>  <IGC50>
2.82

>  <CAS>
127-66-2

>  <SET>
ws

>  <Species>
Tetrahymena pyriformis

>  <Test duration>
48h

$$$$

  Mrv1808 07152009202D          

  8  7  0  0  0  0            999 V2000
    2.8862    0.4183    0.0000 C   0  0  0  0  0  0  0  0  0  0  0  0
    2.1751    0.0000    0.0000 C   0  0  0  0  0  0  0  0  0  0  0  0
    3.5973    0.8366    0.0000 C   0  0  0  0  0  0  0  0  0  0  0  0
    1.4640    0.4183    0.0000 C   0  0  0  0  0  0  0  0  0  0  0  0
    4.3502    1.2130    0.0000 C   0  0  0  0  0  0  0  0  0  0  0  0
    0.7529    0.0000    0.0000 C   0  0  0  0  0  0  0  0  0  0  0  0
    5.1031    0.7947    0.0000 O   0  0  0  0  0  0  0  0  0  0  0  0
    0.0000    0.4183    0.0000 C   0  0  0  0  0  0  0  0  0  0  0  0
  1  2  1  0  0  0  0
  1  3  3  0  0  0  0
  2  4  1  0  0  0  0
  3  5  1  0  0  0  0
  4  6  1  0  0  0  0
  5  7  1  0  0  0  0
  6  8  1  0  0  0  0
M  END
>  <Name>
2-Heptyn-1-ol

>  <IGC50>
2.811

>  <CAS>
1002-36-4

>  <SET>
ws

>  <Species>
Tetrahymena pyriformis

>  <Test duration>
48h

$$$$

  Mrv1808 07152009203D          

  8  7  0  0  0  0            999 V2000
    0.0000    0.0000    0.0000 C   0  0  0  0  0  0  0  0  0  0  0  0
    1.4800    0.3600   -0.0800 C   0  0  0  0  0  0  0  0  0  0  0  0
   -0.9000    1.1000   -0.5800 C   0  0  0  0  0  0  0  0  0  0  0  0
    1.8400    1.3400    0.9600 N   0  0  0  0  0  0  0  0  0  0  0  0
   -1.7600    0.6000   -1.7400 C   0  0  0  0  0  0  0  0  0  0  0  0
    2.2400    0.9000    2.1800 C   0  0  0  0  0  0  0  0  0  0  0  0
    2.5600    1.9400    3.0200 N   0  0  0  0  0  0  0  0  0  0  0  0
    2.3600   -0.7200    2.6200 S   0  0  0  0  0  0  0  0  0  0  0  0
  1  2  1  0  0  0  0
  1  3  1  0  0  0  0
  2  4  1  0  0  0  0
  3  5  1  0  0  0  0
  4  6  1  0  0  0  0
  6  7  1  0  0  0  0
  6  8  2  0  0  0  0
M  END
>  <Name>
Urea, 1-butyl-2-thio-

>  <IGC50>
2.81

>  <CAS>
1516-32-1

>  <SET>
ws

>  <Species>
Tetrahymena pyriformis

>  <Test duration>
48h

$$$$

  Mrv1808 07152009203D          

  7  6  0  0  0  0            999 V2000
    0.7161    1.0963    2.3085 C   0  0  0  0  0  0  0  0  0  0  0  0
    2.0095    1.6649    2.0766 C   0  0  0  0  0  0  0  0  0  0  0  0
    3.0869    2.1387    1.8849 C   0  0  0  0  0  0  0  0  0  0  0  0
    4.4032    2.7176    1.6508 C   0  0  1  0  0  0  0  0  0  0  0  0
    4.7672    2.6567    0.2812 O   0  0  0  0  0  0  0  0  0  0  0  0
    4.4219    4.1965    2.0743 C   0  0  0  0  0  0  0  0  0  0  0  0
    5.8310    4.7231    2.2260 C   0  0  0  0  0  0  0  0  0  0  0  0
  1  2  1  0  0  0  0
  2  3  3  0  0  0  0
  3  4  1  0  0  0  0
  4  5  1  0  0  0  0
  4  6  1  0  0  0  0
  6  7  1  0  0  0  0
M  END
>  <Name>
4-Hexyn-3-ol

>  <IGC50>
2.805

>  <CAS>
20739-59-7

>  <SET>
ws

>  <Species>
Tetrahymena pyriformis

>  <Test duration>
48h

$$$$

  Mrv1808 07152009203D          

 11 11  0  0  0  0            999 V2000
    1.8346   -0.9459    4.0429 O   0  0  0  0  0  0  0  0  0  0  0  0
    1.8509   -0.9767    2.6799 C   0  0  0  0  0  0  0  0  0  0  0  0
    0.8008   -0.4105    1.9570 C   0  0  0  0  0  0  0  0  0  0  0  0
    2.9180   -1.5734    2.0082 C   0  0  0  0  0  0  0  0  0  0  0  0
   -0.2469    0.1753    2.6016 O   0  0  0  0  0  0  0  0  0  0  0  0
    0.8176   -0.4410    0.5626 C   0  0  0  0  0  0  0  0  0  0  0  0
    3.9504   -2.1281    2.7027 O   0  0  0  0  0  0  0  0  0  0  0  0
    2.9348   -1.6038    0.6137 C   0  0  0  0  0  0  0  0  0  0  0  0
    1.8846   -1.0376   -0.1090 C   0  0  0  0  0  0  0  0  0  0  0  0
    1.9023   -1.0690   -1.5631 C   0  0  0  0  0  0  0  0  0  0  0  0
    2.8168   -1.5809   -2.2147 O   0  0  0  0  0  0  0  0  0  0  0  0
  1  2  1  0  0  0  0
  2  3  2  0  0  0  0
  2  4  1  0  0  0  0
  5  3  1  0  0  0  0
  3  6  1  0  0  0  0
  7  4  1  0  0  0  0
  4  8  2  0  0  0  0
  9  6  2  0  0  0  0
  9  8  1  0  0  0  0
  9 10  1  0  0  0  0
 11 10  2  0  0  0  0
M  END
>  <Name>
3,4,5-Trihydroxybenzaldehyde

>  <IGC50>
2.804

>  <CAS>
13677-79-7

>  <SET>
ws

>  <Species>
Tetrahymena pyriformis

>  <Test duration>
48h

$$$$

  Mrv1808 07152009202D          

  8  8  0  0  0  0            999 V2000
    0.0000    0.0000    0.0000 O   0  0  0  0  0  0  0  0  0  0  0  0
    0.4125   -0.7154    0.0000 C   0  0  0  0  0  0  0  0  0  0  0  0
    1.2375   -0.7154    0.0000 C   0  0  0  0  0  0  0  0  0  0  0  0
    1.6471    0.0000    0.0000 C   0  0  0  0  0  0  0  0  0  0  0  0
    1.6471   -1.4279    0.0000 C   0  0  0  0  0  0  0  0  0  0  0  0
    2.4721    0.0000    0.0000 C   0  0  0  0  0  0  0  0  0  0  0  0
    2.4721   -1.4279    0.0000 C   0  0  0  0  0  0  0  0  0  0  0  0
    2.8846   -0.7154    0.0000 C   0  0  0  0  0  0  0  0  0  0  0  0
  1  2  2  0  0  0  0
  2  3  1  0  0  0  0
  3  4  2  0  0  0  0
  3  5  1  0  0  0  0
  4  6  1  0  0  0  0
  7  5  2  0  0  0  0
  6  8  2  0  0  0  0
  8  7  1  0  0  0  0
M  END
>  <Name>
Benzaldehyde

>  <IGC50>
2.8

>  <CAS>
100-52-7

>  <SET>
ws

>  <Species>
Tetrahymena pyriformis

>  <Test duration>
48h

$$$$

  Mrv1808 07152009202D          

  5  4  0  0  0  0            999 V2000
    0.7149    0.0000    0.0000 C   0  0  0  0  0  0  0  0  0  0  0  0
    1.4298   -0.4118    0.0000 C   0  0  0  0  0  0  0  0  0  0  0  0
    0.0000   -0.4118    0.0000 C   0  0  0  0  0  0  0  0  0  0  0  0
    2.1447    0.0000    0.0000 C   0  0  0  0  0  0  0  0  0  0  0  0
    2.8595   -0.4118    0.0000 C   0  0  0  0  0  0  0  0  0  0  0  0
  1  2  1  0  0  0  0
  1  3  1  0  0  0  0
  2  4  1  0  0  0  0
  4  5  1  0  0  0  0
M  END
>  <Name>
Pentane

>  <IGC50>
2.8

>  <CAS>
109-66-0

>  <SET>
ws

>  <Species>
Tetrahymena pyriformis

>  <Test duration>
48h

$$$$

  Mrv1808 07152009202D          

  8  7  0  0  0  0            999 V2000
    0.0000   -1.2378    0.0000 C   0  0  0  0  0  0  0  0  0  0  0  0
    0.7152   -0.8266    0.0000 C   0  0  0  0  0  0  0  0  0  0  0  0
    1.4262   -1.2378    0.0000 C   0  0  0  0  0  0  0  0  0  0  0  0
    2.1415   -0.8266    0.0000 C   0  0  0  0  0  0  0  0  0  0  0  0
    2.8568   -1.2378    0.0000 C   0  0  0  0  0  0  0  0  0  0  0  0
    3.5677   -0.8266    0.0000 C   0  0  0  0  0  0  0  0  0  0  0  0
    4.2830   -1.2378    0.0000 O   0  0  0  0  0  0  0  0  0  0  0  0
    3.5677    0.0000    0.0000 O   0  0  0  0  0  0  0  0  0  0  0  0
  1  2  1  0  0  0  0
  2  3  1  0  0  0  0
  3  4  1  0  0  0  0
  4  5  1  0  0  0  0
  5  6  1  0  0  0  0
  6  7  1  0  0  0  0
  6  8  2  0  0  0  0
M  END
>  <Name>
Hexanoic acid

>  <IGC50>
2.792

>  <CAS>
142-62-1

>  <SET>
ws

>  <Species>
Tetrahymena pyriformis

>  <Test duration>
48h

$$$$

  Mrv1808 07152009203D          

 10 10  0  0  0  0            999 V2000
    2.7167    0.5082   -0.1291 C   0  0  0  0  0  0  0  0  0  0  0  0
    2.1620   -0.9177   -0.1078 C   0  0  0  0  0  0  0  0  0  0  0  0
    1.9423    1.4131   -0.8674 O   0  0  0  0  0  0  0  0  0  0  0  0
    1.0505   -1.1204    0.9146 C   0  0  0  0  0  0  0  0  0  0  0  0
   -0.2584   -0.5491    0.4704 C   0  0  0  0  0  0  0  0  0  0  0  0
   -0.9969   -1.1889   -0.5276 C   0  0  0  0  0  0  0  0  0  0  0  0
   -0.7601    0.6144    1.0562 C   0  0  0  0  0  0  0  0  0  0  0  0
   -2.2207   -0.6702   -0.9332 C   0  0  0  0  0  0  0  0  0  0  0  0
   -1.9856    1.1302    0.6480 C   0  0  0  0  0  0  0  0  0  0  0  0
   -2.7168    0.4897   -0.3461 C   0  0  0  0  0  0  0  0  0  0  0  0
  1  2  1  0  0  0  0
  1  3  1  0  0  0  0
  2  4  1  0  0  0  0
  4  5  1  0  0  0  0
  5  6  1  0  0  0  0
  5  7  2  0  0  0  0
  6  8  2  0  0  0  0
  9  7  1  0  0  0  0
  8 10  1  0  0  0  0
 10  9  2  0  0  0  0
M  END
>  <Name>
1-Propanol, 3-phenyl-

>  <IGC50>
2.79

>  <CAS>
122-97-4

>  <SET>
ws

>  <Species>
Tetrahymena pyriformis

>  <Test duration>
48h

$$$$

  Mrv1808 07152009203D          

 11 11  0  0  0  0            999 V2000
    0.0000    0.0000    0.0000 O   0  0  0  0  0  0  0  0  0  0  0  0
    0.0200   -1.1800   -0.2800 C   0  0  0  0  0  0  0  0  0  0  0  0
   -1.2400   -2.0000   -0.2200 C   0  0  0  0  0  0  0  0  0  0  0  0
    1.3000   -1.8600   -0.7000 C   0  0  0  0  0  0  0  0  0  0  0  0
   -1.0600   -3.2400    0.5800 C   0  0  0  0  0  0  0  0  0  0  0  0
    2.0600   -2.4200    0.4800 C   0  0  0  0  0  0  0  0  0  0  0  0
   -1.5800   -3.3200    1.8800 C   0  0  0  0  0  0  0  0  0  0  0  0
   -0.3400   -4.3200    0.0400 C   0  0  0  0  0  0  0  0  0  0  0  0
   -1.4000   -4.4800    2.6400 C   0  0  0  0  0  0  0  0  0  0  0  0
   -0.1800   -5.5000    0.8000 C   0  0  0  0  0  0  0  0  0  0  0  0
   -0.7000   -5.5800    2.1000 C   0  0  0  0  0  0  0  0  0  0  0  0
  1  2  2  0  0  0  0
  2  3  1  0  0  0  0
  2  4  1  0  0  0  0
  3  5  1  0  0  0  0
  4  6  1  0  0  0  0
  5  7  2  0  0  0  0
  5  8  1  0  0  0  0
  7  9  1  0  0  0  0
 10  8  2  0  0  0  0
  9 11  2  0  0  0  0
 11 10  1  0  0  0  0
M  END
>  <Name>
1-phenylbutan-2-one

>  <IGC50>
2.79

>  <CAS>
1007-32-5

>  <SET>
ws

>  <Species>
Tetrahymena pyriformis

>  <Test duration>
48h

$$$$

  Mrv1808 07152009203D          

  8  7  0  0  0  0            999 V2000
    3.0520    0.8010    1.6887 C   0  0  0  0  0  0  0  0  0  0  0  0
    4.3707    1.3946    2.1300 C   0  0  0  0  0  0  0  0  0  0  0  0
    2.1173    1.8452    1.0892 C   0  0  0  0  0  0  0  0  0  0  0  0
    5.1091    2.2672    1.1157 C   0  0  0  0  0  0  0  0  0  0  0  0
    4.8380    1.2004    3.2327 O   0  0  0  0  0  0  0  0  0  0  0  0
    0.6663    1.4992    1.3326 C   0  0  0  0  0  0  0  0  0  0  0  0
    4.8511    3.7392    1.2522 C   0  0  0  0  0  0  0  0  0  0  0  0
    5.8312    1.7826    0.2708 O   0  0  0  0  0  0  0  0  0  0  0  0
  1  2  1  0  0  0  0
  1  3  1  0  0  0  0
  2  4  1  0  0  0  0
  2  5  2  0  0  0  0
  3  6  1  0  0  0  0
  4  7  1  0  0  0  0
  4  8  2  0  0  0  0
M  END
>  <Name>
2,3-Hexanedione

>  <IGC50>
2.79

>  <CAS>
3848-24-6

>  <SET>
ws

>  <Species>
Tetrahymena pyriformis

>  <Test duration>
48h

$$$$

  Mrv1808 07152009202D          

  7  6  0  0  0  0            999 V2000
    0.0000    0.0000    0.0000 Br  0  0  0  0  0  0  0  0  0  0  0  0
    0.7529    0.4183    0.0000 C   0  0  0  0  0  0  0  0  0  0  0  0
    1.4640    0.0000    0.0000 C   0  0  0  0  0  0  0  0  0  0  0  0
    2.2169    0.4183    0.0000 C   0  0  0  0  0  0  0  0  0  0  0  0
    2.8862    0.0000    0.0000 C   0  0  0  0  0  0  0  0  0  0  0  0
    3.5972    0.4183    0.0000 C   0  0  0  0  0  0  0  0  0  0  0  0
    4.3083    0.8365    0.0000 N   0  0  0  0  0  0  0  0  0  0  0  0
  1  2  1  0  0  0  0
  2  3  1  0  0  0  0
  3  4  1  0  0  0  0
  4  5  1  0  0  0  0
  5  6  1  0  0  0  0
  6  7  3  0  0  0  0
M  END
>  <Name>
5-Bromopentanenitrile

>  <IGC50>
2.785

>  <CAS>
5414-21-1

>  <SET>
ws

>  <Species>
Tetrahymena pyriformis

>  <Test duration>
48h

$$$$

  Mrv1808 07152009202D          

  7  6  0  0  0  0            999 V2000
    0.0000   -0.4112    0.0000 C   0  0  0  0  0  0  0  0  0  0  0  0
    0.7153    0.0000    0.0000 C   0  0  0  0  0  0  0  0  0  0  0  0
    1.4263   -0.4112    0.0000 C   0  0  0  0  0  0  0  0  0  0  0  0
    2.1416    0.0000    0.0000 C   0  0  0  0  0  0  0  0  0  0  0  0
    2.8569   -0.4112    0.0000 C   0  0  0  0  0  0  0  0  0  0  0  0
    3.5679    0.0000    0.0000 C   0  0  0  0  0  0  0  0  0  0  0  0
    4.2832   -0.4112    0.0000 N   0  0  0  0  0  0  0  0  0  0  0  0
  1  2  1  0  0  0  0
  2  3  1  0  0  0  0
  3  4  1  0  0  0  0
  4  5  1  0  0  0  0
  5  6  1  0  0  0  0
  6  7  1  0  0  0  0
M  END
>  <Name>
1-Hexanamine

>  <IGC50>
2.78

>  <CAS>
111-26-2

>  <SET>
ws

>  <Species>
Tetrahymena pyriformis

>  <Test duration>
48h

$$$$

  Mrv1808 07152009202D          

 11 11  0  0  0  0            999 V2000
    0.0412    1.4437    0.0000 O   0  0  0  0  0  0  0  0  0  0  0  0
    0.4125    0.7012    0.0000 N   0  0  0  0  0  0  0  0  0  0  0  0
    0.0000    0.0000    0.0000 O   0  0  0  0  0  0  0  0  0  0  0  0
    1.2787    0.7012    0.0000 C   0  0  0  0  0  0  0  0  0  0  0  0
    1.6912    1.4437    0.0000 C   0  0  0  0  0  0  0  0  0  0  0  0
    1.6912    0.0000    0.0000 C   0  0  0  0  0  0  0  0  0  0  0  0
    2.5162    1.4437    0.0000 C   0  0  0  0  0  0  0  0  0  0  0  0
    2.5162    0.0000    0.0000 C   0  0  0  0  0  0  0  0  0  0  0  0
    2.9286    2.1450    0.0000 C   0  0  0  0  0  0  0  0  0  0  0  0
    2.9286    0.7012    0.0000 C   0  0  0  0  0  0  0  0  0  0  0  0
    3.7536    2.1450    0.0000 O   0  0  0  0  0  0  0  0  0  0  0  0
  1  2  2  0  0  0  0
  2  3  2  0  0  0  0
  2  4  1  0  0  0  0
  5  4  2  0  0  0  0
  4  6  1  0  0  0  0
  7  5  1  0  0  0  0
  6  8  2  0  0  0  0
  7  9  1  0  0  0  0
 10  7  2  0  0  0  0
  8 10  1  0  0  0  0
  9 11  1  0  0  0  0
M  END
>  <Name>
Benzenemethanol, 3-nitro-

>  <IGC50>
2.78

>  <CAS>
619-25-0

>  <SET>
ws

>  <Species>
Tetrahymena pyriformis

>  <Test duration>
48h

$$$$

  Mrv1808 07152009203D          

  9  9  0  0  0  0            999 V2000
    0.2596    2.2777   -0.1211 N   0  0  0  0  0  0  0  0  0  0  0  0
   -0.3055    0.9660   -0.0226 C   0  0  0  0  0  0  0  0  0  0  0  0
    0.4596   -0.1897   -0.2638 C   0  0  0  0  0  0  0  0  0  0  0  0
   -1.6826    0.8513    0.2248 C   0  0  0  0  0  0  0  0  0  0  0  0
   -0.1784   -1.4316   -0.2767 C   0  0  0  0  0  0  0  0  0  0  0  0
    1.9371   -0.1416   -0.5019 C   0  0  0  0  0  0  0  0  0  0  0  0
   -2.2922   -0.3939    0.2147 C   0  0  0  0  0  0  0  0  0  0  0  0
   -1.5423   -1.5377   -0.0412 C   0  0  0  0  0  0  0  0  0  0  0  0
    2.7094   -0.7088    0.6718 C   0  0  0  0  0  0  0  0  0  0  0  0
  1  2  1  0  0  0  0
  2  3  1  0  0  0  0
  2  4  2  0  0  0  0
  3  5  2  0  0  0  0
  3  6  1  0  0  0  0
  7  4  1  0  0  0  0
  5  8  1  0  0  0  0
  6  9  1  0  0  0  0
  8  7  2  0  0  0  0
M  END
>  <Name>
Aniline, o-ethyl- (8CI)

>  <IGC50>
2.78

>  <CAS>
578-54-1

>  <SET>
ws

>  <Species>
Tetrahymena pyriformis

>  <Test duration>
48h

$$$$

  Mrv1808 07152009203D          

  8  7  0  0  0  0            999 V2000
    2.7574    0.9226    2.0313 C   0  0  0  0  0  0  0  0  0  0  0  0
    3.7621    2.0156    2.1412 C   0  0  0  0  0  0  0  0  0  0  0  0
    1.6001    1.3617    1.1667 C   0  0  0  0  0  0  0  0  0  0  0  0
    5.0070    1.8939    1.6786 C   0  0  0  0  0  0  0  0  0  0  0  0
    0.6837    2.1522    1.7740 O   0  0  0  0  0  0  0  0  0  0  0  0
    1.3771    1.0944    0.0000 O   0  0  0  0  0  0  0  0  0  0  0  0
    6.0221    2.9751    1.8007 C   0  0  0  0  0  0  0  0  0  0  0  0
    7.2014    2.5176    2.6327 C   0  0  0  0  0  0  0  0  0  0  0  0
  1  2  1  0  0  0  0
  1  3  1  0  0  0  0
  2  4  2  0  0  0  0
  3  5  1  0  0  0  0
  3  6  2  0  0  0  0
  4  7  1  0  0  0  0
  7  8  1  0  0  0  0
M  END
>  <Name>
3-Hexenoic acid, (3E)-

>  <IGC50>
2.778

>  <CAS>
1577-18-0

>  <SET>
ws

>  <Species>
Tetrahymena pyriformis

>  <Test duration>
48h

$$$$

  Mrv1808 07152009202D          

  7  7  0  0  0  0            999 V2000
    0.0000   -0.7135    0.0000 N   0  0  0  0  0  0  0  0  0  0  0  0
    0.8250   -0.7135    0.0000 C   0  0  0  0  0  0  0  0  0  0  0  0
    1.2387    0.0000    0.0000 C   0  0  0  0  0  0  0  0  0  0  0  0
    1.2387   -1.4295    0.0000 C   0  0  0  0  0  0  0  0  0  0  0  0
    2.0637    0.0000    0.0000 C   0  0  0  0  0  0  0  0  0  0  0  0
    2.0637   -1.4295    0.0000 C   0  0  0  0  0  0  0  0  0  0  0  0
    2.4775   -0.7135    0.0000 C   0  0  0  0  0  0  0  0  0  0  0  0
  1  2  1  0  0  0  0
  2  3  2  0  0  0  0
  2  4  1  0  0  0  0
  3  5  1  0  0  0  0
  6  4  2  0  0  0  0
  5  7  2  0  0  0  0
  7  6  1  0  0  0  0
M  END
>  <Name>
Benzenamine

>  <IGC50>
2.77

>  <CAS>
62-53-3

>  <SET>
ws

>  <Species>
Tetrahymena pyriformis

>  <Test duration>
48h

$$$$

  Mrv1808 07152009202D          

  6  5  0  0  0  0            999 V2000
    0.8263    0.0000    0.0000 C   0  0  0  0  0  0  0  0  0  0  0  0
    1.2384   -0.7147    0.0000 C   0  0  0  0  0  0  0  0  0  0  0  0
    0.8263   -1.4315    0.0000 C   0  0  0  0  0  0  0  0  0  0  0  0
    2.0647   -0.7147    0.0000 O   0  0  0  0  0  0  0  0  0  0  0  0
    1.2384   -2.1462    0.0000 C   0  0  0  0  0  0  0  0  0  0  0  0
    0.0000   -1.4315    0.0000 O   0  0  0  0  0  0  0  0  0  0  0  0
  1  2  1  0  0  0  0
  2  3  1  0  0  0  0
  2  4  2  0  0  0  0
  3  5  1  0  0  0  0
  3  6  2  0  0  0  0
M  END
>  <Name>
2,3-Butanedione

>  <IGC50>
2.77

>  <CAS>
431-03-8

>  <SET>
ws

>  <Species>
Tetrahymena pyriformis

>  <Test duration>
48h

$$$$

  Mrv1808 07152009203D          

 10 10  0  0  0  0            999 V2000
    2.0883   -0.0031    0.1937 C   0  0  0  0  0  0  0  0  0  0  0  0
    3.4639    0.0098   -0.4096 C   0  0  0  0  0  0  0  0  0  0  0  0
    1.7873   -0.0068    1.3680 O   0  0  0  0  0  0  0  0  0  0  0  0
    1.1033   -0.0087   -0.7653 O   0  0  0  0  0  0  0  0  0  0  0  0
   -0.2311   -0.0037   -0.3538 C   0  0  0  0  0  0  0  0  0  0  0  0
   -0.8955    1.2182   -0.2142 C   0  0  0  0  0  0  0  0  0  0  0  0
   -0.9050   -1.2205   -0.2158 C   0  0  0  0  0  0  0  0  0  0  0  0
   -2.2577    1.2109    0.0644 C   0  0  0  0  0  0  0  0  0  0  0  0
   -2.2672   -1.2028    0.0626 C   0  0  0  0  0  0  0  0  0  0  0  0
   -2.9410    0.0066    0.2022 C   0  0  0  0  0  0  0  0  0  0  0  0
  1  2  1  0  0  0  0
  1  3  2  0  0  0  0
  1  4  1  0  0  0  0
  4  5  1  0  0  0  0
  5  6  1  0  0  0  0
  5  7  2  0  0  0  0
  6  8  2  0  0  0  0
  9  7  1  0  0  0  0
  8 10  1  0  0  0  0
 10  9  2  0  0  0  0
M  END
>  <Name>
Acetic acid, phenyl ester

>  <IGC50>
2.77

>  <CAS>
122-79-2

>  <SET>
ws

>  <Species>
Tetrahymena pyriformis

>  <Test duration>
48h

$$$$

  Mrv1808 07152009203D          

  8  7  0  0  0  0            999 V2000
    4.4867    2.6893    2.3726 C   0  0  0  0  0  0  0  0  0  0  0  0
    3.2161    2.1494    1.7119 C   0  0  2  0  0  0  0  0  0  0  0  0
    5.7124    1.8926    1.9764 C   0  0  0  0  0  0  0  0  0  0  0  0
    2.0856    3.1716    1.8697 C   0  0  0  0  0  0  0  0  0  0  0  0
    2.8011    0.8117    2.3061 C   0  0  0  0  0  0  0  0  0  0  0  0
    6.0664    0.7572    2.6239 O   0  0  0  0  0  0  0  0  0  0  0  0
    6.5106    2.1511    1.1012 O   0  0  0  0  0  0  0  0  0  0  0  0
    0.8580    2.7696    1.0822 C   0  0  0  0  0  0  0  0  0  0  0  0
  1  2  1  0  0  0  0
  1  3  1  0  0  0  0
  2  4  1  0  0  0  0
  2  5  1  0  0  0  0
  3  6  1  0  0  0  0
  3  7  2  0  0  0  0
  4  8  1  0  0  0  0
M  END
>  <Name>
Pentanoic acid, 3-methyl-

>  <IGC50>
2.767

>  <CAS>
105-43-1

>  <SET>
ws

>  <Species>
Tetrahymena pyriformis

>  <Test duration>
48h

$$$$

  Mrv1808 07152009202D          

  8  7  0  0  0  0            999 V2000
    5.0049   -0.4154    0.0000 C   0  0  0  0  0  0  0  0  0  0  0  0
    4.2892   -0.8258    0.0000 C   0  0  0  0  0  0  0  0  0  0  0  0
    3.5735   -0.4154    0.0000 C   0  0  0  0  0  0  0  0  0  0  0  0
    2.8578   -0.8258    0.0000 C   0  0  0  0  0  0  0  0  0  0  0  0
    2.1471   -0.4154    0.0000 C   0  0  0  0  0  0  0  0  0  0  0  0
    1.4314   -0.8258    0.0000 C   0  0  0  0  0  0  0  0  0  0  0  0
    0.7157   -0.4154    0.0000 C   0  0  0  0  0  0  0  0  0  0  0  0
    0.0000    0.0000    0.0000 N   0  0  0  0  0  0  0  0  0  0  0  0
  1  2  1  0  0  0  0
  2  3  1  0  0  0  0
  3  4  1  0  0  0  0
  4  5  1  0  0  0  0
  5  6  1  0  0  0  0
  6  7  1  0  0  0  0
  7  8  3  0  0  0  0
M  END
>  <Name>
Heptane-1-nitrile

>  <IGC50>
2.763

>  <CAS>
629-08-3

>  <SET>
ws

>  <Species>
Tetrahymena pyriformis

>  <Test duration>
48h

$$$$

  Mrv1808 07152009202D          

 10 10  0  0  0  0            999 V2000
    1.6471   -0.7125    0.0000 C   0  0  0  0  0  0  0  0  0  0  0  0
    1.2375    0.0000    0.0000 O   0  0  0  0  0  0  0  0  0  0  0  0
    2.4721   -0.7125    0.0000 C   0  0  0  0  0  0  0  0  0  0  0  0
    1.2375   -1.4279    0.0000 C   0  0  0  0  0  0  0  0  0  0  0  0
    2.8846   -1.4279    0.0000 C   0  0  0  0  0  0  0  0  0  0  0  0
    1.6471   -2.1404    0.0000 C   0  0  0  0  0  0  0  0  0  0  0  0
    0.4125   -1.4279    0.0000 C   0  0  0  0  0  0  0  0  0  0  0  0
    2.4721   -2.1404    0.0000 C   0  0  0  0  0  0  0  0  0  0  0  0
    0.0000   -2.1404    0.0000 O   0  0  0  0  0  0  0  0  0  0  0  0
    0.0000   -0.7125    0.0000 N   0  0  0  0  0  0  0  0  0  0  0  0
  1  2  1  0  0  0  0
  1  3  2  0  0  0  0
  1  4  1  0  0  0  0
  3  5  1  0  0  0  0
  6  4  2  0  0  0  0
  4  7  1  0  0  0  0
  5  8  2  0  0  0  0
  8  6  1  0  0  0  0
  7  9  2  0  0  0  0
  7 10  1  0  0  0  0
M  END
>  <Name>
Benzamide, 2-hydroxy-

>  <IGC50>
2.76

>  <CAS>
65-45-2

>  <SET>
ws

>  <Species>
Tetrahymena pyriformis

>  <Test duration>
48h

$$$$

  Mrv1808 07152009202D          

  9  9  0  0  0  0            999 V2000
    1.6501   -1.4289    0.0000 C   0  0  0  0  0  0  0  0  0  0  0  0
    2.4751   -1.4289    0.0000 C   0  0  0  0  0  0  0  0  0  0  0  0
    1.2375   -2.1451    0.0000 C   0  0  0  0  0  0  0  0  0  0  0  0
    1.2375   -0.7161    0.0000 C   0  0  0  0  0  0  0  0  0  0  0  0
    3.3001   -1.4289    0.0000 N   0  0  0  0  0  0  0  0  0  0  0  0
    0.4125   -2.1451    0.0000 C   0  0  0  0  0  0  0  0  0  0  0  0
    0.4125   -0.7161    0.0000 C   0  0  0  0  0  0  0  0  0  0  0  0
    1.6501    0.0000    0.0000 C   0  0  0  0  0  0  0  0  0  0  0  0
    0.0000   -1.4289    0.0000 C   0  0  0  0  0  0  0  0  0  0  0  0
  1  2  1  0  0  0  0
  1  3  2  0  0  0  0
  1  4  1  0  0  0  0
  2  5  3  0  0  0  0
  3  6  1  0  0  0  0
  7  4  2  0  0  0  0
  4  8  1  0  0  0  0
  6  9  2  0  0  0  0
  9  7  1  0  0  0  0
M  END
>  <Name>
Benzonitrile, 2-methyl-

>  <IGC50>
2.76

>  <CAS>
529-19-1

>  <SET>
ws

>  <Species>
Tetrahymena pyriformis

>  <Test duration>
48h

$$$$

  Mrv1808 07152009202D          

  9  9  0  0  0  0            999 V2000
    0.0000    0.0000    0.0000 C   0  0  0  0  0  0  0  0  0  0  0  0
    0.4183    0.7529    0.0000 C   0  0  0  0  0  0  0  0  0  0  0  0
    0.0000    1.4640    0.0000 C   0  0  0  0  0  0  0  0  0  0  0  0
    1.2548    0.7529    0.0000 C   0  0  0  0  0  0  0  0  0  0  0  0
    0.4183    2.1750    0.0000 C   0  0  0  0  0  0  0  0  0  0  0  0
    1.6730    1.4640    0.0000 C   0  0  0  0  0  0  0  0  0  0  0  0
    1.2548    2.1750    0.0000 C   0  0  0  0  0  0  0  0  0  0  0  0
    2.4260    1.8822    0.0000 C   0  0  0  0  0  0  0  0  0  0  0  0
    3.1370    1.4640    0.0000 O   0  0  0  0  0  0  0  0  0  0  0  0
  1  2  1  0  0  0  0
  2  3  2  0  0  0  0
  4  2  1  0  0  0  0
  3  5  1  0  0  0  0
  6  4  2  0  0  0  0
  5  7  2  0  0  0  0
  8  6  1  0  0  0  0
  7  6  1  0  0  0  0
  9  8  1  0  0  0  0
M  END
>  <Name>
Benzenemethanol, 3-methyl-

>  <IGC50>
2.76

>  <CAS>
587-03-1

>  <SET>
ws

>  <Species>
Tetrahymena pyriformis

>  <Test duration>
48h

$$$$

  Mrv1808 07152009203D          

 13 12  0  0  0  0            999 V2000
    0.6742    4.0999    3.6379 C   0  0  0  0  0  0  0  0  0  0  0  0
    2.1160    4.4621    3.9357 C   0  0  0  0  0  0  0  0  0  0  0  0
    2.9260    3.5398    3.2019 O   0  0  0  0  0  0  0  0  0  0  0  0
    4.2806    3.6553    3.2845 C   0  0  0  0  0  0  0  0  0  0  0  0
    5.0023    2.6014    2.4480 C   0  0  1  0  0  0  0  0  0  0  0  0
    4.7705    4.5237    3.9772 O   0  0  0  0  0  0  0  0  0  0  0  0
    5.9069    3.3108    1.4424 C   0  0  0  0  0  0  0  0  0  0  0  0
    5.7591    1.6269    3.3527 C   0  0  0  0  0  0  0  0  0  0  0  0
    7.1808    3.5270    1.8723 O   0  0  0  0  0  0  0  0  0  0  0  0
    5.5724    3.6575    0.3267 O   0  0  0  0  0  0  0  0  0  0  0  0
    4.8194    0.7002    4.0911 C   0  0  0  0  0  0  0  0  0  0  0  0
    8.0945    4.2428    1.0472 C   0  0  0  0  0  0  0  0  0  0  0  0
    7.9092    5.7445    1.1384 C   0  0  0  0  0  0  0  0  0  0  0  0
  1  2  1  0  0  0  0
  2  3  1  0  0  0  0
  3  4  1  0  0  0  0
  4  5  1  0  0  0  0
  4  6  2  0  0  0  0
  5  7  1  0  0  0  0
  5  8  1  0  0  0  0
  7  9  1  0  0  0  0
  7 10  2  0  0  0  0
  8 11  1  0  0  0  0
  9 12  1  0  0  0  0
 12 13  1  0  0  0  0
M  END
>  <Name>
Malonic acid, ethyl-, diethyl ester (8CI)

>  <IGC50>
2.758

>  <CAS>
133-13-1

>  <SET>
ws

>  <Species>
Tetrahymena pyriformis

>  <Test duration>
48h

$$$$

  Mrv1808 07152009202D          

  9  9  0  0  0  0            999 V2000
    0.7142   -1.6499    0.0000 C   0  0  0  0  0  0  0  0  0  0  0  0
    0.0000   -2.0606    0.0000 N   0  0  0  0  0  0  0  0  0  0  0  0
    1.4285   -1.2357    0.0000 C   0  0  0  0  0  0  0  0  0  0  0  0
    1.4285   -0.4107    0.0000 C   0  0  0  0  0  0  0  0  0  0  0  0
    2.1427   -1.6499    0.0000 C   0  0  0  0  0  0  0  0  0  0  0  0
    2.1427    0.0000    0.0000 C   0  0  0  0  0  0  0  0  0  0  0  0
    2.8570   -1.2357    0.0000 C   0  0  0  0  0  0  0  0  0  0  0  0
    2.8570   -0.4107    0.0000 C   0  0  0  0  0  0  0  0  0  0  0  0
    3.5712   -1.6499    0.0000 C   0  0  0  0  0  0  0  0  0  0  0  0
  1  2  3  0  0  0  0
  1  3  1  0  0  0  0
  3  4  2  0  0  0  0
  3  5  1  0  0  0  0
  4  6  1  0  0  0  0
  7  5  2  0  0  0  0
  6  8  2  0  0  0  0
  8  7  1  0  0  0  0
  7  9  1  0  0  0  0
M  END
>  <Name>
Benzonitrile, 3-methyl-

>  <IGC50>
2.75

>  <CAS>
620-22-4

>  <SET>
ws

>  <Species>
Tetrahymena pyriformis

>  <Test duration>
48h

$$$$

  Mrv1808 07152009202D          

 11 10  0  0  0  0            999 V2000
    0.0000    0.8366    0.0000 C   0  0  0  0  0  0  0  0  0  0  0  0
    0.6693    1.2549    0.0000 C   0  0  0  0  0  0  0  0  0  0  0  0
    1.3804    0.8366    0.0000 C   0  0  0  0  0  0  0  0  0  0  0  0
    2.1332    1.2549    0.0000 C   0  0  0  0  0  0  0  0  0  0  0  0
    2.8443    0.8366    0.0000 S   0  0  0  0  0  0  0  0  0  0  0  0
    3.5554    1.2549    0.0000 C   0  0  0  0  0  0  0  0  0  0  0  0
    2.8443    1.6731    0.0000 O   0  0  0  0  0  0  0  0  0  0  0  0
    2.8443    0.0000    0.0000 O   0  0  0  0  0  0  0  0  0  0  0  0
    4.3084    0.8366    0.0000 C   0  0  0  0  0  0  0  0  0  0  0  0
    5.0194    1.2549    0.0000 C   0  0  0  0  0  0  0  0  0  0  0  0
    5.7305    0.8366    0.0000 C   0  0  0  0  0  0  0  0  0  0  0  0
  1  2  1  0  0  0  0
  2  3  1  0  0  0  0
  3  4  1  0  0  0  0
  4  5  1  0  0  0  0
  5  6  1  0  0  0  0
  5  7  2  0  0  0  0
  5  8  2  0  0  0  0
  6  9  1  0  0  0  0
  9 10  1  0  0  0  0
 10 11  1  0  0  0  0
M  END
>  <Name>
Butyl sulfone (8CI)

>  <IGC50>
2.744

>  <CAS>
598-04-9

>  <SET>
ws

>  <Species>
Tetrahymena pyriformis

>  <Test duration>
48h

$$$$

  Mrv1808 07152009202D          

 10  9  0  0  0  0            999 V2000
    3.5973    1.2549    0.0000 C   0  0  0  0  0  0  0  0  0  0  0  0
    2.8862    0.8366    0.0000 S   0  0  0  0  0  0  0  0  0  0  0  0
    4.3502    0.8366    0.0000 C   0  0  0  0  0  0  0  0  0  0  0  0
    2.1751    1.2549    0.0000 C   0  0  0  0  0  0  0  0  0  0  0  0
    2.8862    0.0000    0.0000 O   0  0  0  0  0  0  0  0  0  0  0  0
    5.0612    1.2549    0.0000 C   0  0  0  0  0  0  0  0  0  0  0  0
    1.4221    0.8366    0.0000 C   0  0  0  0  0  0  0  0  0  0  0  0
    5.7724    0.8366    0.0000 C   0  0  0  0  0  0  0  0  0  0  0  0
    0.7111    1.2549    0.0000 C   0  0  0  0  0  0  0  0  0  0  0  0
    0.0000    0.8366    0.0000 C   0  0  0  0  0  0  0  0  0  0  0  0
  1  2  1  0  0  0  0
  1  3  1  0  0  0  0
  2  4  1  0  0  0  0
  2  5  2  0  0  0  0
  3  6  1  0  0  0  0
  4  7  1  0  0  0  0
  6  8  1  0  0  0  0
  7  9  1  0  0  0  0
  9 10  1  0  0  0  0
M  END
>  <Name>
Butane, 1,1'-sulfinylbis-

>  <IGC50>
2.743

>  <CAS>
2168-93-6

>  <SET>
ws

>  <Species>
Tetrahymena pyriformis

>  <Test duration>
48h

$$$$

  Mrv1808 07152009202D          

 10 10  0  0  0  0            999 V2000
    2.4677    1.4221    0.0000 C   0  0  0  0  0  0  0  0  0  0  0  0
    2.0495    0.7110    0.0000 C   0  0  0  0  0  0  0  0  0  0  0  0
    3.3042    1.4221    0.0000 C   0  0  0  0  0  0  0  0  0  0  0  0
    2.4677    0.0000    0.0000 C   0  0  0  0  0  0  0  0  0  0  0  0
    1.2129    0.7110    0.0000 C   0  0  0  0  0  0  0  0  0  0  0  0
    3.7225    0.7110    0.0000 C   0  0  0  0  0  0  0  0  0  0  0  0
    3.3042    0.0000    0.0000 C   0  0  0  0  0  0  0  0  0  0  0  0
    0.8365    0.0000    0.0000 C   0  0  0  0  0  0  0  0  0  0  0  0
    4.5589    0.7110    0.0000 C   0  0  0  0  0  0  0  0  0  0  0  0
    0.0000    0.0000    0.0000 O   0  0  0  0  0  0  0  0  0  0  0  0
  1  2  2  0  0  0  0
  3  1  1  0  0  0  0
  2  4  1  0  0  0  0
  2  5  1  0  0  0  0
  6  3  2  0  0  0  0
  4  7  2  0  0  0  0
  5  8  1  0  0  0  0
  6  9  1  0  0  0  0
  7  6  1  0  0  0  0
  8 10  1  0  0  0  0
M  END
>  <Name>
Phenethyl alcohol, p-methyl- (8CI)

>  <IGC50>
2.74

>  <CAS>
699-02-5

>  <SET>
ws

>  <Species>
Tetrahymena pyriformis

>  <Test duration>
48h

$$$$

  Mrv1808 07152009202D          

  9  9  0  0  0  0            999 V2000
    2.0496    1.4221    0.0000 C   0  0  0  0  0  0  0  0  0  0  0  0
    1.6313    0.7111    0.0000 C   0  0  0  0  0  0  0  0  0  0  0  0
    2.8862    1.4221    0.0000 C   0  0  0  0  0  0  0  0  0  0  0  0
    2.0496    0.0000    0.0000 C   0  0  0  0  0  0  0  0  0  0  0  0
    0.8365    0.7111    0.0000 C   0  0  0  0  0  0  0  0  0  0  0  0
    3.3045    0.7111    0.0000 C   0  0  0  0  0  0  0  0  0  0  0  0
    2.8862    0.0000    0.0000 C   0  0  0  0  0  0  0  0  0  0  0  0
    0.0000    0.7111    0.0000 N   0  0  0  0  0  0  0  0  0  0  0  0
    4.1410    0.7111    0.0000 F   0  0  0  0  0  0  0  0  0  0  0  0
  1  2  2  0  0  0  0
  3  1  1  0  0  0  0
  2  4  1  0  0  0  0
  2  5  1  0  0  0  0
  6  3  2  0  0  0  0
  4  7  2  0  0  0  0
  5  8  3  0  0  0  0
  6  9  1  0  0  0  0
  7  6  1  0  0  0  0
M  END
>  <Name>
4-fluorobenzonitrile

>  <IGC50>
2.74

>  <CAS>
1194-02-1

>  <SET>
ws

>  <Species>
Tetrahymena pyriformis

>  <Test duration>
48h

$$$$

  Mrv1808 07152009202D          

  8  7  0  0  0  0            999 V2000
    0.0000   -0.7136    0.0000 C   0  0  0  0  0  0  0  0  0  0  0  0
    0.8250   -0.7136    0.0000 C   0  0  0  0  0  0  0  0  0  0  0  0
    1.6500   -0.7136    0.0000 C   0  0  0  0  0  0  0  0  0  0  0  0
    2.0625    0.0000    0.0000 O   0  0  0  0  0  0  0  0  0  0  0  0
    2.0625   -1.4273    0.0000 C   0  0  0  0  0  0  0  0  0  0  0  0
    2.8875   -1.4273    0.0000 C   0  0  0  0  0  0  0  0  0  0  0  0
    3.3000   -0.7136    0.0000 C   0  0  0  0  0  0  0  0  0  0  0  0
    4.1250   -0.7136    0.0000 C   0  0  0  0  0  0  0  0  0  0  0  0
  1  2  3  0  0  0  0
  2  3  1  0  0  0  0
  3  4  1  0  0  0  0
  3  5  1  0  0  0  0
  5  6  1  0  0  0  0
  6  7  1  0  0  0  0
  7  8  1  0  0  0  0
M  END
>  <Name>
1-Heptyn-3-ol

>  <IGC50>
2.735

>  <CAS>
7383-19-9

>  <SET>
ws

>  <Species>
Tetrahymena pyriformis

>  <Test duration>
48h

$$$$

  Mrv1808 07152009202D          

  7  6  0  0  0  0            999 V2000
    3.5760   -1.2373    0.0000 O   0  0  0  0  0  0  0  0  0  0  0  0
    2.8608   -0.8260    0.0000 C   0  0  0  0  0  0  0  0  0  0  0  0
    2.1456   -1.2373    0.0000 C   0  0  0  0  0  0  0  0  0  0  0  0
    2.8608    0.0000    0.0000 O   0  0  0  0  0  0  0  0  0  0  0  0
    1.4304   -0.8260    0.0000 C   0  0  0  0  0  0  0  0  0  0  0  0
    0.7152   -1.2373    0.0000 C   0  0  0  0  0  0  0  0  0  0  0  0
    0.0000   -0.8260    0.0000 C   0  0  0  0  0  0  0  0  0  0  0  0
  1  2  1  0  0  0  0
  2  3  1  0  0  0  0
  2  4  2  0  0  0  0
  3  5  1  0  0  0  0
  5  6  1  0  0  0  0
  6  7  1  0  0  0  0
M  END
>  <Name>
Pentanoic acid

>  <IGC50>
2.733

>  <CAS>
109-52-4

>  <SET>
ws

>  <Species>
Tetrahymena pyriformis

>  <Test duration>
48h

$$$$

  Mrv1808 07152009202D          

 14 13  0  0  0  0            999 V2000
    0.7129   -0.8226    0.0000 C   0  0  0  0  0  0  0  0  0  0  0  0
    1.4180   -1.2378    0.0000 C   0  0  0  0  0  0  0  0  0  0  0  0
    0.0000   -1.2378    0.0000 O   0  0  0  0  0  0  0  0  0  0  0  0
    0.7129    0.0000    0.0000 O   0  0  0  0  0  0  0  0  0  0  0  0
    2.1309   -0.8226    0.0000 C   0  0  0  0  0  0  0  0  0  0  0  0
    2.8438   -1.2378    0.0000 C   0  0  0  0  0  0  0  0  0  0  0  0
    3.5567   -0.8226    0.0000 C   0  0  0  0  0  0  0  0  0  0  0  0
    4.2775   -1.2378    0.0000 C   0  0  0  0  0  0  0  0  0  0  0  0
    4.9904   -0.8226    0.0000 C   0  0  0  0  0  0  0  0  0  0  0  0
    5.7033   -1.2378    0.0000 C   0  0  0  0  0  0  0  0  0  0  0  0
    6.4162   -0.8226    0.0000 C   0  0  0  0  0  0  0  0  0  0  0  0
    7.1213   -1.2378    0.0000 C   0  0  0  0  0  0  0  0  0  0  0  0
    7.8341   -0.8226    0.0000 O   0  0  0  0  0  0  0  0  0  0  0  0
    7.1213   -2.0604    0.0000 O   0  0  0  0  0  0  0  0  0  0  0  0
  1  2  1  0  0  0  0
  1  3  1  0  0  0  0
  1  4  2  0  0  0  0
  2  5  1  0  0  0  0
  5  6  1  0  0  0  0
  6  7  1  0  0  0  0
  7  8  1  0  0  0  0
  8  9  1  0  0  0  0
  9 10  1  0  0  0  0
 10 11  1  0  0  0  0
 11 12  1  0  0  0  0
 12 13  1  0  0  0  0
 12 14  2  0  0  0  0
M  END
>  <Name>
Decanedioic acid

>  <IGC50>
2.732

>  <CAS>
111-20-6

>  <SET>
ws

>  <Species>
Tetrahymena pyriformis

>  <Test duration>
48h

$$$$

  Mrv1808 07152009202D          

 10  9  0  0  0  0            999 V2000
    2.8900   -0.7142    0.0000 C   0  0  0  0  0  0  0  0  0  0  0  0
    2.4771    0.0000    0.0000 O   0  0  0  0  0  0  0  0  0  0  0  0
    2.4771   -1.4285    0.0000 O   0  0  0  0  0  0  0  0  0  0  0  0
    3.7156   -0.7142    0.0000 C   0  0  0  0  0  0  0  0  0  0  0  0
    1.6514   -1.4285    0.0000 C   0  0  0  0  0  0  0  0  0  0  0  0
    4.1284    0.0000    0.0000 C   0  0  0  0  0  0  0  0  0  0  0  0
    4.1284   -1.4285    0.0000 C   0  0  0  0  0  0  0  0  0  0  0  0
    1.2386   -0.7142    0.0000 C   0  0  0  0  0  0  0  0  0  0  0  0
    0.4129   -0.7142    0.0000 C   0  0  0  0  0  0  0  0  0  0  0  0
    0.0000    0.0000    0.0000 C   0  0  0  0  0  0  0  0  0  0  0  0
  1  2  2  0  0  0  0
  1  3  1  0  0  0  0
  1  4  1  0  0  0  0
  3  5  1  0  0  0  0
  4  6  1  0  0  0  0
  4  7  2  0  0  0  0
  5  8  1  0  0  0  0
  8  9  1  0  0  0  0
  9 10  1  0  0  0  0
M  END
>  <Name>
2-Propenoic acid, 2-methyl-, butyl ester

>  <IGC50>
2.73

>  <CAS>
97-88-1

>  <SET>
ws

>  <Species>
Tetrahymena pyriformis

>  <Test duration>
48h

$$$$

  Mrv1808 07152009202D          

  7  6  0  0  0  0            999 V2000
    2.8595   -1.2382    0.0000 C   0  0  0  0  0  0  0  0  0  0  0  0
    2.1447   -0.8264    0.0000 C   0  0  0  0  0  0  0  0  0  0  0  0
    2.1447    0.0000    0.0000 O   0  0  0  0  0  0  0  0  0  0  0  0
    1.4298   -1.2382    0.0000 C   0  0  0  0  0  0  0  0  0  0  0  0
    0.7149   -0.8264    0.0000 C   0  0  0  0  0  0  0  0  0  0  0  0
    0.7149    0.0000    0.0000 O   0  0  0  0  0  0  0  0  0  0  0  0
    0.0000   -1.2382    0.0000 C   0  0  0  0  0  0  0  0  0  0  0  0
  1  2  1  0  0  0  0
  2  3  2  0  0  0  0
  2  4  1  0  0  0  0
  4  5  1  0  0  0  0
  5  6  2  0  0  0  0
  5  7  1  0  0  0  0
M  END
>  <Name>
2,4-Pentanedione

>  <IGC50>
2.728

>  <CAS>
123-54-6

>  <SET>
ws

>  <Species>
Tetrahymena pyriformis

>  <Test duration>
48h

$$$$

  Mrv1808 07152009202D          

  8  7  0  0  0  0            999 V2000
    2.1751    0.4183    0.0000 C   0  0  0  0  0  0  0  0  0  0  0  0
    2.9280    0.0000    0.0000 C   0  0  0  0  0  0  0  0  0  0  0  0
    1.4640    0.0000    0.0000 C   0  0  0  0  0  0  0  0  0  0  0  0
    3.6391    0.4183    0.0000 C   0  0  0  0  0  0  0  0  0  0  0  0
    0.7529    0.4183    0.0000 C   0  0  0  0  0  0  0  0  0  0  0  0
    4.3502    0.0000    0.0000 C   0  0  0  0  0  0  0  0  0  0  0  0
    0.0000    0.0000    0.0000 O   0  0  0  0  0  0  0  0  0  0  0  0
    5.1031    0.4183    0.0000 Cl  0  0  0  0  0  0  0  0  0  0  0  0
  1  2  1  0  0  0  0
  1  3  1  0  0  0  0
  2  4  1  0  0  0  0
  3  5  1  0  0  0  0
  4  6  1  0  0  0  0
  5  7  1  0  0  0  0
  6  8  1  0  0  0  0
M  END
>  <Name>
1-Hexanol, 6-chloro-

>  <IGC50>
2.727

>  <CAS>
2009-83-8

>  <SET>
ws

>  <Species>
Tetrahymena pyriformis

>  <Test duration>
48h

$$$$

  Mrv1808 07152009203D          

  8  7  0  0  0  0            999 V2000
    7.3872    0.9101    2.0902 C   0  0  0  0  0  0  0  0  0  0  0  0
    6.1531    1.2884    2.6607 O   0  0  0  0  0  0  0  0  0  0  0  0
    5.5385    2.4223    2.2041 C   0  0  0  0  0  0  0  0  0  0  0  0
    6.0738    3.0731    1.3300 O   0  0  0  0  0  0  0  0  0  0  0  0
    4.2239    2.7112    2.8986 C   0  0  0  0  0  0  0  0  0  0  0  0
    3.1100    2.0210    2.1927 C   0  0  0  0  0  0  0  0  0  0  0  0
    2.0636    2.6783    1.6901 C   0  0  0  0  0  0  0  0  0  0  0  0
    0.9347    2.0035    1.0139 C   0  0  0  0  0  0  0  0  0  0  0  0
  1  2  1  0  0  0  0
  2  3  1  0  0  0  0
  3  4  2  0  0  0  0
  3  5  1  0  0  0  0
  5  6  1  0  0  0  0
  7  6  2  0  0  0  0
  8  7  1  0  0  0  0
M  END
>  <Name>
(E)-Pent-3-enoic acid methyl ester

>  <IGC50>
2.724

>  <CAS>
20515-19-9

>  <SET>
ws

>  <Species>
Tetrahymena pyriformis

>  <Test duration>
48h

$$$$

  Mrv1808 07152009203D          

  7  6  0  0  0  0            999 V2000
    0.6762    1.0565    1.4705 C   0  0  0  0  0  0  0  0  0  0  0  0
    1.9629    1.7977    1.1770 C   0  0  0  0  0  0  0  0  0  0  0  0
    2.9053    1.7548    2.3221 C   0  0  0  0  0  0  0  0  0  0  0  0
    4.2105    2.0446    2.2813 C   0  0  0  0  0  0  0  0  0  0  0  0
    4.9483    2.4544    1.0755 C   0  0  0  0  0  0  0  0  0  0  0  0
    6.2975    2.3645    1.1871 O   0  0  0  0  0  0  0  0  0  0  0  0
    4.5467    2.8695    0.0000 O   0  0  0  0  0  0  0  0  0  0  0  0
  1  2  1  0  0  0  0
  2  3  1  0  0  0  0
  3  4  2  0  0  0  0
  4  5  1  0  0  0  0
  5  6  1  0  0  0  0
  5  7  2  0  0  0  0
M  END
>  <Name>
(E)-Pent-2-en-1-oic acid

>  <IGC50>
2.723

>  <CAS>
13991-37-2

>  <SET>
ws

>  <Species>
Tetrahymena pyriformis

>  <Test duration>
48h

$$$$

  Mrv1808 07152009202D          

  8  8  0  0  0  0            999 V2000
    1.4319   -0.8249    0.0000 C   0  0  0  0  0  0  0  0  0  0  0  0
    2.1479   -1.2337    0.0000 C   0  0  0  0  0  0  0  0  0  0  0  0
    0.7159   -1.2337    0.0000 C   0  0  0  0  0  0  0  0  0  0  0  0
    1.4319    0.0000    0.0000 N   0  0  0  0  0  0  0  0  0  0  0  0
    2.1479   -2.0587    0.0000 C   0  0  0  0  0  0  0  0  0  0  0  0
    0.7159   -2.0587    0.0000 C   0  0  0  0  0  0  0  0  0  0  0  0
    1.4319   -2.4774    0.0000 C   0  0  0  0  0  0  0  0  0  0  0  0
    0.0000   -2.4774    0.0000 C   0  0  0  0  0  0  0  0  0  0  0  0
  1  2  2  0  0  0  0
  1  3  1  0  0  0  0
  1  4  1  0  0  0  0
  2  5  1  0  0  0  0
  6  3  2  0  0  0  0
  5  7  2  0  0  0  0
  7  6  1  0  0  0  0
  6  8  1  0  0  0  0
M  END
>  <Name>
Benzenamine, 3-methyl-

>  <IGC50>
2.72

>  <CAS>
108-44-1

>  <SET>
ws

>  <Species>
Tetrahymena pyriformis

>  <Test duration>
48h

$$$$

  Mrv1808 07152009202D          

 10 10  0  0  0  0            999 V2000
    0.8366    0.0000    0.0000 C   0  0  0  0  0  0  0  0  0  0  0  0
    1.2549    0.7111    0.0000 C   0  0  0  0  0  0  0  0  0  0  0  0
    0.0000    0.0000    0.0000 N   0  0  0  0  0  0  0  0  0  0  0  0
    0.8366    1.4222    0.0000 C   0  0  0  0  0  0  0  0  0  0  0  0
    2.0914    0.7111    0.0000 C   0  0  0  0  0  0  0  0  0  0  0  0
    2.5098    1.4222    0.0000 C   0  0  0  0  0  0  0  0  0  0  0  0
    2.5098    0.0000    0.0000 C   0  0  0  0  0  0  0  0  0  0  0  0
    3.3464    1.4222    0.0000 C   0  0  0  0  0  0  0  0  0  0  0  0
    3.3464    0.0000    0.0000 C   0  0  0  0  0  0  0  0  0  0  0  0
    3.7647    0.7111    0.0000 C   0  0  0  0  0  0  0  0  0  0  0  0
  1  2  1  0  0  0  0
  1  3  1  0  0  0  0
  2  4  1  0  0  0  0
  2  5  1  0  0  0  0
  6  5  2  0  0  0  0
  5  7  1  0  0  0  0
  8  6  1  0  0  0  0
  7  9  2  0  0  0  0
 10  8  2  0  0  0  0
  9 10  1  0  0  0  0
M  END
>  <Name>
Benzeneethanamine, beta-methyl- (9CI)

>  <IGC50>
2.72

>  <CAS>
582-22-9

>  <SET>
ws

>  <Species>
Tetrahymena pyriformis

>  <Test duration>
48h

$$$$

  Mrv1808 07152009202D          

  9  8  0  0  0  0            999 V2000
    2.9076    1.2461    0.0000 C   0  0  0  0  0  0  0  0  0  0  0  0
    2.1599    0.8308    0.0000 C   0  0  0  0  0  0  0  0  0  0  0  0
    3.6137    0.8308    0.0000 C   0  0  0  0  0  0  0  0  0  0  0  0
    1.4537    1.2461    0.0000 O   0  0  0  0  0  0  0  0  0  0  0  0
    2.1599    0.0000    0.0000 O   0  0  0  0  0  0  0  0  0  0  0  0
    4.3198    1.2461    0.0000 C   0  0  0  0  0  0  0  0  0  0  0  0
    0.7477    0.8308    0.0000 C   0  0  0  0  0  0  0  0  0  0  0  0
    5.0674    0.8308    0.0000 Cl  0  0  0  0  0  0  0  0  0  0  0  0
    0.0000    1.2461    0.0000 C   0  0  0  0  0  0  0  0  0  0  0  0
  1  2  1  0  0  0  0
  1  3  1  0  0  0  0
  2  4  1  0  0  0  0
  2  5  2  0  0  0  0
  3  6  1  0  0  0  0
  4  7  1  0  0  0  0
  6  8  1  0  0  0  0
  7  9  1  0  0  0  0
M  END
>  <Name>
Butyric acid, 4-chloro-, ethyl ester (8CI)

>  <IGC50>
2.719

>  <CAS>
3153-36-4

>  <SET>
ws

>  <Species>
Tetrahymena pyriformis

>  <Test duration>
48h

$$$$

  Mrv1808 07152009202D          

  8  7  0  0  0  0            999 V2000
    0.7120    0.3351    0.0000 C   0  0  0  0  0  0  0  0  0  0  0  0
    0.0000    0.0000    0.0000 Cl  0  0  0  0  0  0  0  0  0  0  0  0
    1.4659    0.0000    0.0000 C   0  0  0  0  0  0  0  0  0  0  0  0
    2.1360    0.3351    0.0000 C   0  0  0  0  0  0  0  0  0  0  0  0
    2.8899    0.0000    0.0000 C   0  0  0  0  0  0  0  0  0  0  0  0
    3.6438    0.3351    0.0000 C   0  0  0  0  0  0  0  0  0  0  0  0
    4.3558    0.0000    0.0000 O   0  0  0  0  0  0  0  0  0  0  0  0
    3.6438    1.1727    0.0000 O   0  0  0  0  0  0  0  0  0  0  0  0
  1  2  1  0  0  0  0
  1  3  1  0  0  0  0
  3  4  1  0  0  0  0
  5  4  1  0  0  0  0
  6  5  1  0  0  0  0
  6  7  1  0  0  0  0
  6  8  2  0  0  0  0
M  END
>  <Name>
5-Chlorovaleric acid

>  <IGC50>
2.714

>  <CAS>
1119-46-6

>  <SET>
ws

>  <Species>
Tetrahymena pyriformis

>  <Test duration>
48h

$$$$

  Mrv1808 07152009202D          

  8  8  0  0  0  0            999 V2000
    0.0000   -1.4295    0.0000 O   0  0  0  0  0  0  0  0  0  0  0  0
    0.8250   -1.4295    0.0000 C   0  0  0  0  0  0  0  0  0  0  0  0
    1.2388   -0.7160    0.0000 C   0  0  0  0  0  0  0  0  0  0  0  0
    1.2388   -2.1455    0.0000 C   0  0  0  0  0  0  0  0  0  0  0  0
    0.8250    0.0000    0.0000 C   0  0  0  0  0  0  0  0  0  0  0  0
    2.0638   -0.7160    0.0000 C   0  0  0  0  0  0  0  0  0  0  0  0
    2.0638   -2.1455    0.0000 C   0  0  0  0  0  0  0  0  0  0  0  0
    2.4775   -1.4295    0.0000 C   0  0  0  0  0  0  0  0  0  0  0  0
  1  2  1  0  0  0  0
  2  3  2  0  0  0  0
  2  4  1  0  0  0  0
  3  5  1  0  0  0  0
  3  6  1  0  0  0  0
  7  4  2  0  0  0  0
  6  8  2  0  0  0  0
  8  7  1  0  0  0  0
M  END
>  <Name>
Phenol, 2-methyl-

>  <IGC50>
2.71

>  <CAS>
95-48-7

>  <SET>
ws

>  <Species>
Tetrahymena pyriformis

>  <Test duration>
48h

$$$$

  Mrv1808 07152009202D          

 10 11  0  0  0  0            999 V2000
    1.4438    1.2375    0.0000 C   0  0  0  0  0  0  0  0  0  0  0  0
    1.4438    0.4125    0.0000 C   0  0  0  0  0  0  0  0  0  0  0  0
    0.7425    1.6500    0.0000 C   0  0  0  0  0  0  0  0  0  0  0  0
    2.1450    1.6500    0.0000 N   0  0  0  0  0  0  0  0  0  0  0  0
    2.1450    0.0000    0.0000 C   0  0  0  0  0  0  0  0  0  0  0  0
    0.7425    0.0000    0.0000 C   0  0  0  0  0  0  0  0  0  0  0  0
    0.0000    1.2375    0.0000 C   0  0  0  0  0  0  0  0  0  0  0  0
    2.8875    1.2375    0.0000 C   0  0  0  0  0  0  0  0  0  0  0  0
    2.8875    0.4125    0.0000 N   0  0  0  0  0  0  0  0  0  0  0  0
    0.0000    0.4125    0.0000 C   0  0  0  0  0  0  0  0  0  0  0  0
  1  2  1  0  0  0  0
  3  1  1  0  0  0  0
  1  4  2  0  0  0  0
  5  2  2  0  0  0  0
  2  6  1  0  0  0  0
  7  3  2  0  0  0  0
  4  8  1  0  0  0  0
  9  5  1  0  0  0  0
  6 10  2  0  0  0  0
 10  7  1  0  0  0  0
  8  9  2  0  0  0  0
M  END
>  <Name>
quinazoline

>  <IGC50>
2.71

>  <CAS>
253-82-7

>  <SET>
ws

>  <Species>
Tetrahymena pyriformis

>  <Test duration>
48h

$$$$

  Mrv1808 07152009202D          

  9  9  0  0  0  0            999 V2000
    2.8594    0.0000    0.0000 N   0  0  0  0  0  0  0  0  0  0  0  0
    2.1445   -0.4118    0.0000 C   0  0  0  0  0  0  0  0  0  0  0  0
    2.1445   -1.2381    0.0000 C   0  0  0  0  0  0  0  0  0  0  0  0
    1.4297    0.0000    0.0000 C   0  0  0  0  0  0  0  0  0  0  0  0
    1.4297   -1.6499    0.0000 C   0  0  0  0  0  0  0  0  0  0  0  0
    2.8594   -1.6499    0.0000 C   0  0  0  0  0  0  0  0  0  0  0  0
    0.7148   -0.4118    0.0000 C   0  0  0  0  0  0  0  0  0  0  0  0
    0.7148   -1.2381    0.0000 C   0  0  0  0  0  0  0  0  0  0  0  0
    0.0000   -1.6499    0.0000 C   0  0  0  0  0  0  0  0  0  0  0  0
  1  2  1  0  0  0  0
  2  3  2  0  0  0  0
  2  4  1  0  0  0  0
  3  5  1  0  0  0  0
  3  6  1  0  0  0  0
  7  4  2  0  0  0  0
  5  8  2  0  0  0  0
  8  7  1  0  0  0  0
  8  9  1  0  0  0  0
M  END
>  <Name>
Benzenamine, 2,4-dimethyl-

>  <IGC50>
2.71

>  <CAS>
95-68-1

>  <SET>
ws

>  <Species>
Tetrahymena pyriformis

>  <Test duration>
48h

$$$$

  Mrv1808 07152009202D          

  8  8  0  0  0  0            999 V2000
    1.4298   -1.6500    0.0000 N   0  0  0  0  0  0  0  0  0  0  0  0
    0.7149   -1.2382    0.0000 C   0  0  0  0  0  0  0  0  0  0  0  0
    2.1447   -1.2382    0.0000 C   0  0  0  0  0  0  0  0  0  0  0  0
    0.0000   -1.6500    0.0000 O   0  0  0  0  0  0  0  0  0  0  0  0
    0.7149   -0.4118    0.0000 C   0  0  0  0  0  0  0  0  0  0  0  0
    2.1447   -0.4118    0.0000 C   0  0  0  0  0  0  0  0  0  0  0  0
    2.8596   -1.6500    0.0000 Cl  0  0  0  0  0  0  0  0  0  0  0  0
    1.4298    0.0000    0.0000 C   0  0  0  0  0  0  0  0  0  0  0  0
  1  2  2  0  0  0  0
  1  3  1  0  0  0  0
  2  4  1  0  0  0  0
  2  5  1  0  0  0  0
  6  3  2  0  0  0  0
  3  7  1  0  0  0  0
  5  8  2  0  0  0  0
  8  6  1  0  0  0  0
M  END
>  <Name>
6-Chloropyridin-2-ol

>  <IGC50>
2.71

>  <CAS>
16879-02-0

>  <SET>
ws

>  <Species>
Tetrahymena pyriformis

>  <Test duration>
48h

$$$$

  Mrv1808 07152009202D          

 12 11  0  0  0  0            999 V2000
    7.2360    0.0000    0.0000 C   0  0  0  0  0  0  0  0  0  0  0  0
    6.5249    0.4183    0.0000 C   0  0  0  0  0  0  0  0  0  0  0  0
    5.7721    0.0000    0.0000 O   0  0  0  0  0  0  0  0  0  0  0  0
    5.0610    0.4183    0.0000 C   0  0  0  0  0  0  0  0  0  0  0  0
    5.0610    1.2548    0.0000 O   0  0  0  0  0  0  0  0  0  0  0  0
    4.3499    0.0000    0.0000 C   0  0  0  0  0  0  0  0  0  0  0  0
    3.5970    0.4183    0.0000 C   0  0  0  0  0  0  0  0  0  0  0  0
    2.8860    0.0000    0.0000 C   0  0  0  0  0  0  0  0  0  0  0  0
    2.1749    0.4183    0.0000 C   0  0  0  0  0  0  0  0  0  0  0  0
    1.4221    0.0000    0.0000 C   0  0  0  0  0  0  0  0  0  0  0  0
    0.7110    0.4183    0.0000 C   0  0  0  0  0  0  0  0  0  0  0  0
    0.0000    0.0000    0.0000 C   0  0  0  0  0  0  0  0  0  0  0  0
  1  2  2  0  0  0  0
  2  3  1  0  0  0  0
  3  4  1  0  0  0  0
  5  4  2  0  0  0  0
  4  6  1  0  0  0  0
  6  7  1  0  0  0  0
  7  8  1  0  0  0  0
  8  9  1  0  0  0  0
  9 10  1  0  0  0  0
 10 11  1  0  0  0  0
 11 12  1  0  0  0  0
M  END
>  <Name>
Octanoic acid, vinyl ester (mixed isomers)

>  <IGC50>
2.7

>  <CAS>
818-44-0

>  <SET>
ws

>  <Species>
Tetrahymena pyriformis

>  <Test duration>
48h

$$$$

  Mrv1808 07152009203D          

 12 12  0  0  0  0            999 V2000
    1.7658    0.3118    0.0046 O   0  0  0  0  0  0  0  0  0  0  0  0
    0.4387    0.0043    0.0035 C   0  0  0  0  0  0  0  0  0  0  0  0
    2.6841   -0.7797    0.0049 C   0  0  0  0  0  0  0  0  0  0  0  0
   -0.5237    1.0138    0.0013 C   0  0  0  0  0  0  0  0  0  0  0  0
    0.0457   -1.3340    0.0028 C   0  0  0  0  0  0  0  0  0  0  0  0
    4.0966   -0.2356   -0.0090 C   0  0  0  0  0  0  0  0  0  0  0  0
   -0.1529    2.3246    0.0004 O   0  0  0  0  0  0  0  0  0  0  0  0
   -1.8794    0.6852   -0.0016 C   0  0  0  0  0  0  0  0  0  0  0  0
   -1.3099   -1.6628   -0.0002 C   0  0  0  0  0  0  0  0  0  0  0  0
   -1.1990    3.2941   -0.0018 C   0  0  0  0  0  0  0  0  0  0  0  0
   -2.2724   -0.6531   -0.0024 C   0  0  0  0  0  0  0  0  0  0  0  0
   -1.6935   -2.9687   -0.0023 O   0  0  0  0  0  0  0  0  0  0  0  0
  1  2  1  0  0  0  0
  1  3  1  0  0  0  0
  2  4  2  0  0  0  0
  2  5  1  0  0  0  0
  3  6  1  0  0  0  0
  7  4  1  0  0  0  0
  4  8  1  0  0  0  0
  5  9  2  0  0  0  0
  7 10  1  0  0  0  0
  8 11  2  0  0  0  0
 12  9  1  0  0  0  0
  9 11  1  0  0  0  0
M  END
>  <Name>
3-ethoxy-4-methoxyphenol

>  <IGC50>
2.7

>  <CAS>
65383-57-5

>  <SET>
ws

>  <Species>
Tetrahymena pyriformis

>  <Test duration>
48h

$$$$

  Mrv1808 07152009202D          

  9  9  0  0  0  0            999 V2000
    0.0000   -1.4279    0.0000 O   0  0  0  0  0  0  0  0  0  0  0  0
    0.4125   -0.7154    0.0000 C   0  0  0  0  0  0  0  0  0  0  0  0
    0.0000    0.0000    0.0000 O   0  0  0  0  0  0  0  0  0  0  0  0
    1.2375   -0.7154    0.0000 C   0  0  0  0  0  0  0  0  0  0  0  0
    1.6471    0.0000    0.0000 C   0  0  0  0  0  0  0  0  0  0  0  0
    1.6471   -1.4279    0.0000 C   0  0  0  0  0  0  0  0  0  0  0  0
    2.4721    0.0000    0.0000 C   0  0  0  0  0  0  0  0  0  0  0  0
    2.4721   -1.4279    0.0000 C   0  0  0  0  0  0  0  0  0  0  0  0
    2.8846   -0.7154    0.0000 C   0  0  0  0  0  0  0  0  0  0  0  0
  1  2  1  0  0  0  0
  2  3  2  0  0  0  0
  2  4  1  0  0  0  0
  4  5  2  0  0  0  0
  4  6  1  0  0  0  0
  5  7  1  0  0  0  0
  8  6  2  0  0  0  0
  7  9  2  0  0  0  0
  9  8  1  0  0  0  0
M  END
>  <Name>
Benzoic acid

>  <IGC50>
2.7

>  <CAS>
65-85-0

>  <SET>
ws

>  <Species>
Tetrahymena pyriformis

>  <Test duration>
48h

$$$$

  Mrv1808 07152009202D          

 10 11  0  0  0  0            999 V2000
    1.4438    1.2375    0.0000 C   0  0  0  0  0  0  0  0  0  0  0  0
    1.4438    0.4125    0.0000 C   0  0  0  0  0  0  0  0  0  0  0  0
    2.1450    1.6500    0.0000 N   0  0  0  0  0  0  0  0  0  0  0  0
    0.7425    1.6500    0.0000 C   0  0  0  0  0  0  0  0  0  0  0  0
    0.7425    0.0000    0.0000 C   0  0  0  0  0  0  0  0  0  0  0  0
    2.1450    0.0000    0.0000 N   0  0  0  0  0  0  0  0  0  0  0  0
    2.8875    1.2375    0.0000 C   0  0  0  0  0  0  0  0  0  0  0  0
    0.0000    1.2375    0.0000 C   0  0  0  0  0  0  0  0  0  0  0  0
    0.0000    0.4125    0.0000 C   0  0  0  0  0  0  0  0  0  0  0  0
    2.8875    0.4125    0.0000 C   0  0  0  0  0  0  0  0  0  0  0  0
  2  1  1  0  0  0  0
  1  3  1  0  0  0  0
  4  1  2  0  0  0  0
  2  5  2  0  0  0  0
  6  2  1  0  0  0  0
  3  7  2  0  0  0  0
  8  4  1  0  0  0  0
  5  9  1  0  0  0  0
 10  6  2  0  0  0  0
  7 10  1  0  0  0  0
  9  8  2  0  0  0  0
M  END
>  <Name>
Quinoxaline

>  <IGC50>
2.7

>  <CAS>
91-19-0

>  <SET>
ws

>  <Species>
Tetrahymena pyriformis

>  <Test duration>
48h

$$$$

  Mrv1808 07152009203D          

 11 11  0  0  0  0            999 V2000
    1.9836   -2.2360   -0.1482 Br  0  0  0  0  0  0  0  0  0  0  0  0
    0.4096   -1.1789   -0.0644 C   0  0  0  0  0  0  0  0  0  0  0  0
    0.4644    0.2117    0.0317 C   0  0  0  0  0  0  0  0  0  0  0  0
   -0.8249   -1.8273   -0.1018 C   0  0  0  0  0  0  0  0  0  0  0  0
   -0.7154    0.9536    0.0904 C   0  0  0  0  0  0  0  0  0  0  0  0
    1.7280    0.9378    0.0743 C   0  0  0  0  0  0  0  0  0  0  0  0
   -2.0046   -1.0853   -0.0433 C   0  0  0  0  0  0  0  0  0  0  0  0
   -1.9498    0.3051    0.0529 C   0  0  0  0  0  0  0  0  0  0  0  0
    1.8559    1.8133   -0.9584 O   0  0  0  0  0  0  0  0  0  0  0  0
    2.6019    0.7970    0.9330 O   0  0  0  0  0  0  0  0  0  0  0  0
   -3.5488    1.3091    0.1337 Br  0  0  0  0  0  0  0  0  0  0  0  0
  1  2  1  0  0  0  0
  3  2  2  0  0  0  0
  2  4  1  0  0  0  0
  3  5  1  0  0  0  0
  3  6  1  0  0  0  0
  4  7  2  0  0  0  0
  5  8  2  0  0  0  0
  9  6  1  0  0  0  0
 10  6  2  0  0  0  0
  8  7  1  0  0  0  0
 11  8  1  0  0  0  0
M  END
>  <Name>
2,5-dibromobenzoic acid

>  <IGC50>
2.69

>  <CAS>
610-71-9

>  <SET>
ws

>  <Species>
Tetrahymena pyriformis

>  <Test duration>
48h

$$$$

  Mrv1808 07152009202D          

  9  9  0  0  0  0            999 V2000
    0.0000    0.0000    0.0000 N   0  0  0  0  0  0  0  0  0  0  0  0
    0.4988   -0.4751    0.0000 C   0  0  0  0  0  0  0  0  0  0  0  0
    1.1164   -1.0689    0.0000 C   0  0  0  0  0  0  0  0  0  0  0  0
    1.8884   -0.8433    0.0000 C   0  0  0  0  0  0  0  0  0  0  0  0
    2.5060   -1.4490    0.0000 C   0  0  0  0  0  0  0  0  0  0  0  0
    3.3255   -1.3540    0.0000 C   0  0  0  0  0  0  0  0  0  0  0  0
    2.2804   -2.2210    0.0000 O   0  0  0  0  0  0  0  0  0  0  0  0
    3.6343   -2.1141    0.0000 C   0  0  0  0  0  0  0  0  0  0  0  0
    2.9811   -2.6248    0.0000 C   0  0  0  0  0  0  0  0  0  0  0  0
  1  2  3  0  0  0  0
  2  3  1  0  0  0  0
  3  4  2  0  0  0  0
  4  5  1  0  0  0  0
  5  6  2  0  0  0  0
  5  7  1  0  0  0  0
  6  8  1  0  0  0  0
  7  9  1  0  0  0  0
  8  9  2  0  0  0  0
M  END
>  <Name>
(E)-3-(furan-2-yl)prop-2-enenitrile

>  <IGC50>
2.69

>  <CAS>
7187-01-1

>  <SET>
ws

>  <Species>
Tetrahymena pyriformis

>  <Test duration>
48h

$$$$

  Mrv1808 07152009202D          

  7  6  0  0  0  0            999 V2000
    2.8862    0.4183    0.0000 C   0  0  0  0  0  0  0  0  0  0  0  0
    2.1751    0.0000    0.0000 S   0  0  0  0  0  0  0  0  0  0  0  0
    3.6391    0.0419    0.0000 C   0  0  0  0  0  0  0  0  0  0  0  0
    1.4640    0.4183    0.0000 C   0  0  0  0  0  0  0  0  0  0  0  0
    4.3502    0.4601    0.0000 C   0  0  0  0  0  0  0  0  0  0  0  0
    0.7111    0.0000    0.0000 C   0  0  0  0  0  0  0  0  0  0  0  0
    0.0000    0.4183    0.0000 C   0  0  0  0  0  0  0  0  0  0  0  0
  1  2  1  0  0  0  0
  1  3  1  0  0  0  0
  2  4  1  0  0  0  0
  3  5  2  0  0  0  0
  4  6  1  0  0  0  0
  6  7  2  0  0  0  0
M  END
>  <Name>
1-Propene, 3,3'-thiobis-

>  <IGC50>
2.69

>  <CAS>
592-88-1

>  <SET>
ws

>  <Species>
Tetrahymena pyriformis

>  <Test duration>
48h

$$$$

  Mrv1808 07152009203D          

 11 10  0  0  0  0            999 V2000
    0.4567   -0.4911   -0.0194 O   0  0  0  0  0  0  0  0  0  0  0  0
   -0.6831    0.3571   -0.0269 C   0  0  0  0  0  0  0  0  0  0  0  0
    1.6741    0.1407   -0.0150 C   0  0  0  0  0  0  0  0  0  0  0  0
   -1.9377   -0.5047   -0.0310 C   0  0  0  0  0  0  0  0  0  0  0  0
    1.8430    1.3526   -0.0170 O   0  0  0  0  0  0  0  0  0  0  0  0
    2.7707   -0.8958   -0.0061 C   0  0  0  0  0  0  0  0  0  0  0  0
   -3.2061    0.3457   -0.0235 C   0  0  0  0  0  0  0  0  0  0  0  0
    4.1053   -0.2862    0.0224 C   0  0  0  0  0  0  0  0  0  0  0  0
   -4.4604   -0.5268    0.0151 C   0  0  0  0  0  0  0  0  0  0  0  0
    5.1624    0.1918    0.0444 N   0  0  0  0  0  0  0  0  0  0  0  0
   -5.7247    0.3167    0.0569 C   0  0  0  0  0  0  0  0  0  0  0  0
  1  2  1  0  0  0  0
  1  3  1  0  0  0  0
  4  2  1  0  0  0  0
  5  3  2  0  0  0  0
  3  6  1  0  0  0  0
  7  4  1  0  0  0  0
  6  8  1  0  0  0  0
  7  9  1  0  0  0  0
 10  8  3  0  0  0  0
  9 11  1  0  0  0  0
M  END
>  <Name>
pentyl 2-cyanoacetate

>  <IGC50>
2.69

>  <CAS>
17686-39-4

>  <SET>
ws

>  <Species>
Tetrahymena pyriformis

>  <Test duration>
48h

$$$$

  Mrv1808 07152009203D          

 10 10  0  0  0  0            999 V2000
   -1.9706    1.3994   -0.5093 O   0  0  0  0  0  0  0  0  0  0  0  0
   -1.5049    0.3338   -0.0325 C   0  0  0  0  0  0  0  0  0  0  0  0
   -0.0960    0.0566   -0.0125 C   0  0  0  0  0  0  0  0  0  0  0  0
   -2.5132   -0.6732    0.5357 C   0  0  0  0  0  0  0  0  0  0  0  0
    0.4554   -1.2040   -0.0771 C   0  0  0  0  0  0  0  0  0  0  0  0
    0.9730    0.9821    0.0757 C   0  0  0  0  0  0  0  0  0  0  0  0
    1.8183   -1.0690   -0.0308 N   0  0  0  0  0  0  0  0  0  0  0  0
   -0.1716   -2.5365   -0.1798 C   0  0  0  0  0  0  0  0  0  0  0  0
    2.1453    0.2588    0.0623 C   0  0  0  0  0  0  0  0  0  0  0  0
    0.8644    2.4519    0.1683 C   0  0  0  0  0  0  0  0  0  0  0  0
  1  2  2  0  0  0  0
  3  2  1  0  0  0  0
  2  4  1  0  0  0  0
  3  5  2  0  0  0  0
  3  6  1  0  0  0  0
  7  5  1  0  0  0  0
  5  8  1  0  0  0  0
  6  9  2  0  0  0  0
  6 10  1  0  0  0  0
  7  9  1  0  0  0  0
M  END
>  <Name>
1-(2,4-dimethyl-1H-pyrrol-3-yl)ethanone

>  <IGC50>
2.68

>  <CAS>
2386-25-6

>  <SET>
ws

>  <Species>
Tetrahymena pyriformis

>  <Test duration>
48h

$$$$

  Mrv1808 07152009203D          

 11 11  0  0  0  0            999 V2000
    1.9859    1.2707   -1.1171 O   0  0  0  0  0  0  0  0  0  0  0  0
    1.3992    1.0496   -0.0458 C   0  0  0  0  0  0  0  0  0  0  0  0
    2.0207    1.2796    1.1758 N   0  0  0  0  0  0  0  0  0  0  0  0
    0.0260    0.5580   -0.0226 C   0  0  0  0  0  0  0  0  0  0  0  0
   -0.2650   -0.8060   -0.0034 C   0  0  0  0  0  0  0  0  0  0  0  0
   -1.0098    1.4922   -0.0192 C   0  0  0  0  0  0  0  0  0  0  0  0
   -1.5919   -1.2358    0.0190 C   0  0  0  0  0  0  0  0  0  0  0  0
    0.7775   -1.7874   -0.0055 C   0  0  0  0  0  0  0  0  0  0  0  0
   -2.3366    1.0625    0.0034 C   0  0  0  0  0  0  0  0  0  0  0  0
   -2.6276   -0.3015    0.0225 C   0  0  0  0  0  0  0  0  0  0  0  0
    1.6215   -2.5818   -0.0071 N   0  0  0  0  0  0  0  0  0  0  0  0
  1  2  2  0  0  0  0
  3  2  1  0  0  0  0
  4  2  1  0  0  0  0
  4  5  1  0  0  0  0
  4  6  2  0  0  0  0
  5  7  2  0  0  0  0
  5  8  1  0  0  0  0
  6  9  1  0  0  0  0
  7 10  1  0  0  0  0
 11  8  3  0  0  0  0
  9 10  2  0  0  0  0
M  END
>  <Name>
2-cyanobenzamide

>  <IGC50>
2.68

>  <CAS>
17174-98-0

>  <SET>
ws

>  <Species>
Tetrahymena pyriformis

>  <Test duration>
48h

$$$$

  Mrv1808 07152009202D          

 13 13  0  0  0  0            999 V2000
    0.4125    1.4290    0.0000 C   0  0  0  0  0  0  0  0  0  0  0  0
    1.2375    1.4290    0.0000 C   0  0  0  0  0  0  0  0  0  0  0  0
    0.0000    0.7144    0.0000 O   0  0  0  0  0  0  0  0  0  0  0  0
    0.0000    2.1434    0.0000 N   0  0  0  0  0  0  0  0  0  0  0  0
    1.6500    2.1434    0.0000 C   0  0  0  0  0  0  0  0  0  0  0  0
    1.6500    0.7144    0.0000 C   0  0  0  0  0  0  0  0  0  0  0  0
    2.4750    2.1434    0.0000 C   0  0  0  0  0  0  0  0  0  0  0  0
    1.2375    2.8579    0.0000 N   0  3  0  0  0  0  0  0  0  0  0  0
    2.4750    0.7144    0.0000 C   0  0  0  0  0  0  0  0  0  0  0  0
    2.8875    1.4290    0.0000 C   0  0  0  0  0  0  0  0  0  0  0  0
    1.6500    3.5724    0.0000 O   0  0  0  0  0  0  0  0  0  0  0  0
    0.4125    2.8579    0.0000 O   0  5  0  0  0  0  0  0  0  0  0  0
    2.8875    0.0000    0.0000 Cl  0  0  0  0  0  0  0  0  0  0  0  0
  1  2  1  0  0  0  0
  1  3  2  0  0  0  0
  1  4  1  0  0  0  0
  2  5  1  0  0  0  0
  2  6  2  0  0  0  0
  5  7  2  0  0  0  0
  5  8  1  0  0  0  0
  9  6  1  0  0  0  0
  7 10  1  0  0  0  0
  8 11  2  0  0  0  0
  8 12  1  0  0  0  0
 10  9  2  0  0  0  0
  9 13  1  0  0  0  0
M  CHG  2   8   1  12  -1
M  END
>  <Name>
2-Nitro-5-chlorobenzamide

>  <IGC50>
2.68

>  <CAS>
40763-96-0

>  <SET>
ws

>  <Species>
Tetrahymena pyriformis

>  <Test duration>
48h

$$$$

  Mrv1808 07152009202D          

  5  4  0  0  0  0            999 V2000
    1.6501    1.4438    0.0000 Br  0  0  0  0  0  0  0  0  0  0  0  0
    1.2375    0.7425    0.0000 C   0  0  0  0  0  0  0  0  0  0  0  0
    0.4125    0.7425    0.0000 C   0  0  0  0  0  0  0  0  0  0  0  0
    0.0000    1.4438    0.0000 C   0  0  0  0  0  0  0  0  0  0  0  0
    0.0000    0.0000    0.0000 C   0  0  0  0  0  0  0  0  0  0  0  0
  1  2  1  0  0  0  0
  2  3  1  0  0  0  0
  3  4  1  0  0  0  0
  3  5  1  0  0  0  0
M  END
>  <Name>
Propane, 1-bromo-2-methyl-

>  <IGC50>
2.68

>  <CAS>
78-77-3

>  <SET>
ws

>  <Species>
Tetrahymena pyriformis

>  <Test duration>
48h

$$$$

  Mrv1808 07152009202D          

  9  9  0  0  0  0            999 V2000
    0.0000   -1.6499    0.0000 N   0  0  0  0  0  0  0  0  0  0  0  0
    0.7148   -1.2381    0.0000 C   0  0  0  0  0  0  0  0  0  0  0  0
    0.7148   -0.4118    0.0000 C   0  0  0  0  0  0  0  0  0  0  0  0
    1.4297   -1.6499    0.0000 C   0  0  0  0  0  0  0  0  0  0  0  0
    1.4297    0.0000    0.0000 C   0  0  0  0  0  0  0  0  0  0  0  0
    0.0000    0.0000    0.0000 C   0  0  0  0  0  0  0  0  0  0  0  0
    2.1445   -1.2381    0.0000 C   0  0  0  0  0  0  0  0  0  0  0  0
    2.1445   -0.4118    0.0000 C   0  0  0  0  0  0  0  0  0  0  0  0
    2.8594   -1.6499    0.0000 C   0  0  0  0  0  0  0  0  0  0  0  0
  1  2  1  0  0  0  0
  2  3  2  0  0  0  0
  2  4  1  0  0  0  0
  3  5  1  0  0  0  0
  3  6  1  0  0  0  0
  7  4  2  0  0  0  0
  5  8  2  0  0  0  0
  8  7  1  0  0  0  0
  7  9  1  0  0  0  0
M  END
>  <Name>
Benzenamine, 2,5-dimethyl-

>  <IGC50>
2.67

>  <CAS>
95-78-3

>  <SET>
ws

>  <Species>
Tetrahymena pyriformis

>  <Test duration>
48h

$$$$

  Mrv1808 07152009202D          

  9  9  0  0  0  0            999 V2000
    3.5714   -1.6500    0.0000 O   0  0  0  0  0  0  0  0  0  0  0  0
    2.8571   -1.2393    0.0000 C   0  0  0  0  0  0  0  0  0  0  0  0
    2.1428   -1.6500    0.0000 C   0  0  0  0  0  0  0  0  0  0  0  0
    2.8571   -0.4143    0.0000 C   0  0  0  0  0  0  0  0  0  0  0  0
    1.4285   -1.2393    0.0000 C   0  0  0  0  0  0  0  0  0  0  0  0
    2.1428    0.0000    0.0000 C   0  0  0  0  0  0  0  0  0  0  0  0
    0.7143   -1.6500    0.0000 O   0  0  0  0  0  0  0  0  0  0  0  0
    1.4285   -0.4143    0.0000 C   0  0  0  0  0  0  0  0  0  0  0  0
    0.0000   -1.2393    0.0000 C   0  0  0  0  0  0  0  0  0  0  0  0
  1  2  1  0  0  0  0
  2  3  2  0  0  0  0
  2  4  1  0  0  0  0
  3  5  1  0  0  0  0
  6  4  2  0  0  0  0
  5  7  1  0  0  0  0
  5  8  2  0  0  0  0
  8  6  1  0  0  0  0
  7  9  1  0  0  0  0
M  END
>  <Name>
Phenol, 3-methoxy-

>  <IGC50>
2.67

>  <CAS>
150-19-6

>  <SET>
ws

>  <Species>
Tetrahymena pyriformis

>  <Test duration>
48h

$$$$

  Mrv1808 07152009202D          

  6  5  0  0  0  0            999 V2000
    2.1447    0.0000    0.0000 C   0  0  0  0  0  0  0  0  0  0  0  0
    2.1447   -0.8264    0.0000 C   0  0  0  0  0  0  0  0  0  0  0  0
    2.8596   -1.2382    0.0000 C   0  0  0  0  0  0  0  0  0  0  0  0
    1.4298   -1.2382    0.0000 C   0  0  0  0  0  0  0  0  0  0  0  0
    0.7149   -0.8264    0.0000 C   0  0  0  0  0  0  0  0  0  0  0  0
    0.0000   -1.2382    0.0000 O   0  0  0  0  0  0  0  0  0  0  0  0
  1  2  1  0  0  0  0
  2  3  1  0  0  0  0
  2  4  1  0  0  0  0
  4  5  1  0  0  0  0
  5  6  2  0  0  0  0
M  END
>  <Name>
Butyraldehyde, 3-methyl-

>  <IGC50>
2.67

>  <CAS>
590-86-3

>  <SET>
ws

>  <Species>
Tetrahymena pyriformis

>  <Test duration>
48h

$$$$

  Mrv1808 07152009202D          

  6  5  0  0  0  0            999 V2000
    2.1447    0.0000    0.0000 O   0  0  0  0  0  0  0  0  0  0  0  0
    2.1447   -0.8264    0.0000 C   0  0  0  0  0  0  0  0  0  0  0  0
    2.8596   -1.2382    0.0000 O   0  0  0  0  0  0  0  0  0  0  0  0
    1.4298   -1.2382    0.0000 C   0  0  0  0  0  0  0  0  0  0  0  0
    0.7149   -0.8264    0.0000 C   0  0  0  0  0  0  0  0  0  0  0  0
    0.0000   -1.2382    0.0000 Cl  0  0  0  0  0  0  0  0  0  0  0  0
  1  2  2  0  0  0  0
  2  3  1  0  0  0  0
  2  4  1  0  0  0  0
  4  5  1  0  0  0  0
  5  6  1  0  0  0  0
M  END
>  <Name>
Propanoic acid, 3-chloro-

>  <IGC50>
2.668

>  <CAS>
107-94-8

>  <SET>
ws

>  <Species>
Tetrahymena pyriformis

>  <Test duration>
48h

$$$$

  Mrv1808 07152009202D          

 10 10  0  0  0  0            999 V2000
    1.4100   -0.4415    0.0000 C   0  0  0  0  0  0  0  0  0  0  0  0
    0.7207    0.0000    0.0000 C   0  0  0  0  0  0  0  0  0  0  0  0
    1.4100   -1.2506    0.0000 C   0  0  0  0  0  0  0  0  0  0  0  0
    2.1393   -0.0199    0.0000 C   0  0  0  0  0  0  0  0  0  0  0  0
    0.0000   -0.4415    0.0000 C   0  0  0  0  0  0  0  0  0  0  0  0
    0.7207   -1.6807    0.0000 C   0  0  0  0  0  0  0  0  0  0  0  0
    2.1393   -1.6493    0.0000 C   0  0  0  0  0  0  0  0  0  0  0  0
    2.8486   -0.4501    0.0000 N   0  0  0  0  0  0  0  0  0  0  0  0
    0.0000   -1.2506    0.0000 C   0  0  0  0  0  0  0  0  0  0  0  0
    2.1393   -2.4698    0.0000 N   0  0  0  0  0  0  0  0  0  0  0  0
  1  2  2  0  0  0  0
  1  3  1  0  0  0  0
  1  4  1  0  0  0  0
  2  5  1  0  0  0  0
  6  3  2  0  0  0  0
  3  7  1  0  0  0  0
  4  8  3  0  0  0  0
  5  9  2  0  0  0  0
  9  6  1  0  0  0  0
  7 10  3  0  0  0  0
M  END
>  <Name>
1,2-Benzenedicarbonitrile

>  <IGC50>
2.66

>  <CAS>
91-15-6

>  <SET>
ws

>  <Species>
Tetrahymena pyriformis

>  <Test duration>
48h

$$$$

  Mrv1808 07152009202D          

 10 11  0  0  0  0            999 V2000
    0.7249   -0.7946    0.0000 C   0  0  0  0  0  0  0  0  0  0  0  0
    1.3864   -0.3894    0.0000 N   0  0  0  0  0  0  0  0  0  0  0  0
   -0.0182   -0.4112    0.0000 C   0  0  0  0  0  0  0  0  0  0  0  0
    1.3864    0.3894    0.0000 N   0  0  0  0  0  0  0  0  0  0  0  0
   -0.0182    0.4112    0.0000 C   0  0  0  0  0  0  0  0  0  0  0  0
   -0.7354   -0.8212    0.0000 C   0  0  0  0  0  0  0  0  0  0  0  0
    0.7249    0.7946    0.0000 C   0  0  0  0  0  0  0  0  0  0  0  0
   -0.7354    0.8212    0.0000 C   0  0  0  0  0  0  0  0  0  0  0  0
   -1.4253   -0.4125    0.0000 C   0  0  0  0  0  0  0  0  0  0  0  0
   -1.4253    0.4125    0.0000 C   0  0  0  0  0  0  0  0  0  0  0  0
  1  2  1  0  0  0  0
  1  3  2  0  0  0  0
  2  4  2  0  0  0  0
  5  3  1  0  0  0  0
  6  3  1  0  0  0  0
  4  7  1  0  0  0  0
  7  5  2  0  0  0  0
  5  8  1  0  0  0  0
  9  6  2  0  0  0  0
  8 10  2  0  0  0  0
 10  9  1  0  0  0  0
M  END
>  <Name>
Phthalazine

>  <IGC50>
2.66

>  <CAS>
253-52-1

>  <SET>
ws

>  <Species>
Tetrahymena pyriformis

>  <Test duration>
48h

$$$$

  Mrv1808 07152009202D          

 10  9  0  0  0  0            999 V2000
    0.0000    0.0000    0.0000 C   0  0  0  0  0  0  0  0  0  0  0  0
    0.7012    0.3712    0.0000 C   0  0  0  0  0  0  0  0  0  0  0  0
    1.4024    0.0000    0.0000 C   0  0  0  0  0  0  0  0  0  0  0  0
    2.1449    0.3712    0.0000 C   0  0  0  0  0  0  0  0  0  0  0  0
    2.8461    0.0000    0.0000 O   0  0  0  0  0  0  0  0  0  0  0  0
    2.1449    1.1962    0.0000 O   0  0  0  0  0  0  0  0  0  0  0  0
    2.8461    1.6499    0.0000 C   0  0  0  0  0  0  0  0  0  0  0  0
    2.8461    2.4337    0.0000 C   0  0  0  0  0  0  0  0  0  0  0  0
    3.5473    2.8874    0.0000 C   0  0  0  0  0  0  0  0  0  0  0  0
    2.1449    2.8874    0.0000 C   0  0  0  0  0  0  0  0  0  0  0  0
  1  2  1  0  0  0  0
  2  3  2  0  0  0  0
  3  4  1  0  0  0  0
  4  5  2  0  0  0  0
  4  6  1  0  0  0  0
  6  7  1  0  0  0  0
  7  8  1  0  0  0  0
  8  9  1  0  0  0  0
  8 10  1  0  0  0  0
M  END
>  <Name>
Crotonicacid, isobutyl ester (6CI,8CI)

>  <IGC50>
2.66

>  <CAS>
589-66-2

>  <SET>
ws

>  <Species>
Tetrahymena pyriformis

>  <Test duration>
48h

$$$$

  Mrv1808 07152009203D          

  7  6  0  0  0  0            999 V2000
   -2.0498    0.7469   -0.0017 O   0  0  0  0  0  0  0  0  0  0  0  0
   -1.1709   -0.1174   -0.0006 C   0  0  0  0  0  0  0  0  0  0  0  0
    0.2836    0.2860    0.0003 C   0  0  0  0  0  0  0  0  0  0  0  0
   -1.5521   -1.5777    0.0007 C   0  0  0  0  0  0  0  0  0  0  0  0
    1.2445   -0.6558    0.0022 C   0  0  0  0  0  0  0  0  0  0  0  0
    0.5172    1.7711    0.0015 C   0  0  0  0  0  0  0  0  0  0  0  0
    2.7275   -0.4532   -0.0024 C   0  0  0  0  0  0  0  0  0  0  0  0
  1  2  2  0  0  0  0
  3  2  1  0  0  0  0
  2  4  1  0  0  0  0
  3  5  2  0  0  0  0
  3  6  1  0  0  0  0
  5  7  1  0  0  0  0
M  END
>  <Name>
(E)-3-methylpent-3-en-2-one

>  <IGC50>
2.66

>  <CAS>
565-62-8

>  <SET>
ws

>  <Species>
Tetrahymena pyriformis

>  <Test duration>
48h

$$$$

  Mrv1808 07152009202D          

  7  6  0  0  0  0            999 V2000
    3.5540   -1.2368    0.0000 Cl  0  0  0  0  0  0  0  0  0  0  0  0
    2.8396   -0.8210    0.0000 C   0  0  0  0  0  0  0  0  0  0  0  0
    2.1289   -1.2368    0.0000 C   0  0  0  0  0  0  0  0  0  0  0  0
    2.8396    0.0000    0.0000 O   0  0  0  0  0  0  0  0  0  0  0  0
    1.4145   -0.8210    0.0000 C   0  0  0  0  0  0  0  0  0  0  0  0
    0.7143   -1.2368    0.0000 C   0  0  0  0  0  0  0  0  0  0  0  0
    0.0000   -0.8210    0.0000 C   0  0  0  0  0  0  0  0  0  0  0  0
  1  2  1  0  0  0  0
  2  3  1  0  0  0  0
  2  4  2  0  0  0  0
  3  5  1  0  0  0  0
  5  6  1  0  0  0  0
  6  7  1  0  0  0  0
M  END
>  <Name>
Pentanoyl chloride

>  <IGC50>
2.655

>  <CAS>
638-29-9

>  <SET>
ws

>  <Species>
Tetrahymena pyriformis

>  <Test duration>
48h

$$$$

  Mrv1808 07152009202D          

  7  7  0  0  0  0            999 V2000
    0.0000   -0.7135    0.0000 O   0  0  0  0  0  0  0  0  0  0  0  0
    0.8250   -0.7135    0.0000 C   0  0  0  0  0  0  0  0  0  0  0  0
    1.2387    0.0000    0.0000 C   0  0  0  0  0  0  0  0  0  0  0  0
    1.2387   -1.4295    0.0000 C   0  0  0  0  0  0  0  0  0  0  0  0
    2.0637    0.0000    0.0000 C   0  0  0  0  0  0  0  0  0  0  0  0
    2.0637   -1.4295    0.0000 C   0  0  0  0  0  0  0  0  0  0  0  0
    2.4775   -0.7135    0.0000 C   0  0  0  0  0  0  0  0  0  0  0  0
  1  2  1  0  0  0  0
  2  3  2  0  0  0  0
  2  4  1  0  0  0  0
  3  5  1  0  0  0  0
  6  4  2  0  0  0  0
  5  7  2  0  0  0  0
  7  6  1  0  0  0  0
M  END
>  <Name>
Phenol, pure

>  <IGC50>
2.65

>  <CAS>
108-95-2

>  <SET>
ws

>  <Species>
Tetrahymena pyriformis

>  <Test duration>
48h

$$$$

  Mrv1808 07152009202D          

  6  6  0  0  0  0            999 V2000
    0.0000    0.6625    0.0000 Cl  0  0  0  0  0  0  0  0  0  0  0  0
    0.8282    0.6625    0.0000 C   0  0  0  0  0  0  0  0  0  0  0  0
    1.2836    0.0000    0.0000 C   0  0  0  0  0  0  0  0  0  0  0  0
    1.2836    1.3251    0.0000 C   0  0  0  0  0  0  0  0  0  0  0  0
    2.0703    0.2484    0.0000 C   0  0  0  0  0  0  0  0  0  0  0  0
    2.0703    1.0766    0.0000 C   0  0  0  0  0  0  0  0  0  0  0  0
  1  2  1  0  0  0  0
  2  3  1  0  0  0  0
  4  2  1  0  0  0  0
  3  5  1  0  0  0  0
  6  4  1  0  0  0  0
  5  6  1  0  0  0  0
M  END
>  <Name>
chlorocyclopentane

>  <IGC50>
2.65

>  <CAS>
930-28-9

>  <SET>
ws

>  <Species>
Tetrahymena pyriformis

>  <Test duration>
48h

$$$$

  Mrv1808 07152009202D          

  7  6  0  0  0  0            999 V2000
    2.1187    1.2631    0.0000 C   0  0  0  0  0  0  0  0  0  0  0  0
    1.4261    0.8149    0.0000 C   0  0  0  0  0  0  0  0  0  0  0  0
    2.1187    2.0372    0.0000 O   0  0  0  0  0  0  0  0  0  0  0  0
    2.8521    0.8557    0.0000 O   0  0  0  0  0  0  0  0  0  0  0  0
    0.7334    1.2223    0.0000 C   0  0  0  0  0  0  0  0  0  0  0  0
    1.4261    0.0000    0.0000 Cl  0  0  0  0  0  0  0  0  0  0  0  0
    0.0000    0.8149    0.0000 C   0  0  0  0  0  0  0  0  0  0  0  0
  1  2  1  0  0  0  0
  1  3  1  0  0  0  0
  1  4  2  0  0  0  0
  2  5  1  0  0  0  0
  2  6  1  0  0  0  0
  5  7  1  0  0  0  0
M  END
>  <Name>
Butyricacid, 2-chloro- (6CI,7CI,8CI)

>  <IGC50>
2.648

>  <CAS>
4170-24-5

>  <SET>
ws

>  <Species>
Tetrahymena pyriformis

>  <Test duration>
48h

$$$$

  Mrv1808 07152009202D          

  9  9  0  0  0  0            999 V2000
    0.0000   -1.4298    0.0000 C   0  0  0  0  0  0  0  0  0  0  0  0
    0.8264   -1.4298    0.0000 C   0  0  0  0  0  0  0  0  0  0  0  0
    1.2382   -0.7149    0.0000 C   0  0  0  0  0  0  0  0  0  0  0  0
    1.2382   -2.1446    0.0000 C   0  0  0  0  0  0  0  0  0  0  0  0
    2.0646   -0.7149    0.0000 C   0  0  0  0  0  0  0  0  0  0  0  0
    2.0646   -2.1446    0.0000 C   0  0  0  0  0  0  0  0  0  0  0  0
    2.4763    0.0000    0.0000 C   0  0  0  0  0  0  0  0  0  0  0  0
    2.4763   -1.4298    0.0000 C   0  0  0  0  0  0  0  0  0  0  0  0
    2.4763   -2.8595    0.0000 N   0  0  0  0  0  0  0  0  0  0  0  0
  1  2  1  0  0  0  0
  2  3  2  0  0  0  0
  2  4  1  0  0  0  0
  3  5  1  0  0  0  0
  6  4  2  0  0  0  0
  5  7  1  0  0  0  0
  5  8  2  0  0  0  0
  8  6  1  0  0  0  0
  6  9  1  0  0  0  0
M  END
>  <Name>
Benzenamine, 3,5-dimethyl-

>  <IGC50>
2.64

>  <CAS>
108-69-0

>  <SET>
ws

>  <Species>
Tetrahymena pyriformis

>  <Test duration>
48h

$$$$

  Mrv1808 07152009202D          

  9  9  0  0  0  0            999 V2000
    0.0000   -0.8251    0.0000 N   0  0  0  0  0  0  0  0  0  0  0  0
    0.7143   -1.2393    0.0000 C   0  0  0  0  0  0  0  0  0  0  0  0
    1.4287   -1.6501    0.0000 C   0  0  0  0  0  0  0  0  0  0  0  0
    2.1430   -1.2393    0.0000 C   0  0  0  0  0  0  0  0  0  0  0  0
    2.1430   -0.4143    0.0000 C   0  0  0  0  0  0  0  0  0  0  0  0
    2.8573   -1.6501    0.0000 C   0  0  0  0  0  0  0  0  0  0  0  0
    2.8573    0.0000    0.0000 C   0  0  0  0  0  0  0  0  0  0  0  0
    3.5716   -1.2393    0.0000 C   0  0  0  0  0  0  0  0  0  0  0  0
    3.5716   -0.4143    0.0000 C   0  0  0  0  0  0  0  0  0  0  0  0
  1  2  3  0  0  0  0
  2  3  1  0  0  0  0
  3  4  1  0  0  0  0
  4  5  2  0  0  0  0
  4  6  1  0  0  0  0
  5  7  1  0  0  0  0
  8  6  2  0  0  0  0
  7  9  2  0  0  0  0
  9  8  1  0  0  0  0
M  END
>  <Name>
Acetonitrile, phenyl-

>  <IGC50>
2.64

>  <CAS>
140-29-4

>  <SET>
ws

>  <Species>
Tetrahymena pyriformis

>  <Test duration>
48h

$$$$

  Mrv1808 07152009202D          

 11 11  0  0  0  0            999 V2000
    1.6451   -0.7114    0.0000 C   0  0  0  0  0  0  0  0  0  0  0  0
    1.2338    0.0000    0.0000 Cl  0  0  0  0  0  0  0  0  0  0  0  0
    2.4714   -0.7114    0.0000 C   0  0  0  0  0  0  0  0  0  0  0  0
    1.2338   -1.4265    0.0000 C   0  0  0  0  0  0  0  0  0  0  0  0
    2.8827   -1.4265    0.0000 C   0  0  0  0  0  0  0  0  0  0  0  0
    1.6451   -2.1379    0.0000 C   0  0  0  0  0  0  0  0  0  0  0  0
    0.4113   -1.4265    0.0000 C   0  0  0  0  0  0  0  0  0  0  0  0
    3.7052   -1.4265    0.0000 Cl  0  0  0  0  0  0  0  0  0  0  0  0
    2.4714   -2.1379    0.0000 C   0  0  0  0  0  0  0  0  0  0  0  0
    0.0000   -2.1379    0.0000 O   0  0  0  0  0  0  0  0  0  0  0  0
    0.0000   -0.7114    0.0000 N   0  0  0  0  0  0  0  0  0  0  0  0
  1  2  1  0  0  0  0
  1  3  2  0  0  0  0
  1  4  1  0  0  0  0
  3  5  1  0  0  0  0
  6  4  2  0  0  0  0
  4  7  1  0  0  0  0
  5  8  1  0  0  0  0
  5  9  2  0  0  0  0
  9  6  1  0  0  0  0
  7 10  2  0  0  0  0
  7 11  1  0  0  0  0
M  END
>  <Name>
Benzamide, 2,4-dichloro-

>  <IGC50>
2.64

>  <CAS>
2447-79-2

>  <SET>
ws

>  <Species>
Tetrahymena pyriformis

>  <Test duration>
48h

$$$$

  Mrv1808 07152009202D          

 10 10  0  0  0  0            999 V2000
    0.8250    2.1450    0.0000 C   0  0  0  0  0  0  0  0  0  0  0  0
    1.2375    1.4438    0.0000 O   0  0  0  0  0  0  0  0  0  0  0  0
    0.0000    2.1450    0.0000 C   0  0  0  0  0  0  0  0  0  0  0  0
    2.0626    1.4438    0.0000 C   0  0  0  0  0  0  0  0  0  0  0  0
    2.4751    0.7013    0.0000 C   0  0  0  0  0  0  0  0  0  0  0  0
    2.4751    2.1450    0.0000 C   0  0  0  0  0  0  0  0  0  0  0  0
    2.0626    0.0000    0.0000 O   0  0  0  0  0  0  0  0  0  0  0  0
    3.3001    0.7013    0.0000 C   0  0  0  0  0  0  0  0  0  0  0  0
    3.3001    2.1450    0.0000 C   0  0  0  0  0  0  0  0  0  0  0  0
    3.7126    1.4438    0.0000 C   0  0  0  0  0  0  0  0  0  0  0  0
  1  2  1  0  0  0  0
  1  3  1  0  0  0  0
  2  4  1  0  0  0  0
  4  5  2  0  0  0  0
  6  4  1  0  0  0  0
  5  7  1  0  0  0  0
  5  8  1  0  0  0  0
  9  6  2  0  0  0  0
  8 10  2  0  0  0  0
 10  9  1  0  0  0  0
M  END
>  <Name>
2-ethoxyphenol

>  <IGC50>
2.64

>  <CAS>
94-71-3

>  <SET>
ws

>  <Species>
Tetrahymena pyriformis

>  <Test duration>
48h

$$$$

  Mrv1808 07152009202D          

  8  8  0  0  0  0            999 V2000
    0.4183    0.7110    0.0000 C   0  0  0  0  0  0  0  0  0  0  0  0
    0.0000    1.4220    0.0000 C   0  0  0  0  0  0  0  0  0  0  0  0
    1.2548    0.7110    0.0000 C   0  0  0  0  0  0  0  0  0  0  0  0
    0.4183    2.1331    0.0000 C   0  0  0  0  0  0  0  0  0  0  0  0
    1.6731    1.4220    0.0000 C   0  0  0  0  0  0  0  0  0  0  0  0
    1.6731    0.0000    0.0000 F   0  0  0  0  0  0  0  0  0  0  0  0
    1.2548    2.1331    0.0000 C   0  0  0  0  0  0  0  0  0  0  0  0
    2.5095    1.4220    0.0000 N   0  0  0  0  0  0  0  0  0  0  0  0
  1  2  2  0  0  0  0
  3  1  1  0  0  0  0
  2  4  1  0  0  0  0
  5  3  2  0  0  0  0
  3  6  1  0  0  0  0
  4  7  2  0  0  0  0
  7  5  1  0  0  0  0
  5  8  1  0  0  0  0
M  END
>  <Name>
Aniline, o-fluoro- (8CI)

>  <IGC50>
2.63

>  <CAS>
348-54-9

>  <SET>
ws

>  <Species>
Tetrahymena pyriformis

>  <Test duration>
48h

$$$$

  Mrv1808 07152009203D          

  9  8  0  0  0  0            999 V2000
   -0.3888   -0.0765    0.0005 O   0  0  0  0  0  0  0  0  0  0  0  0
    0.8105    0.5667    0.0006 C   0  0  0  0  0  0  0  0  0  0  0  0
   -1.5455    0.7670   -0.0002 C   0  0  0  0  0  0  0  0  0  0  0  0
    0.9738    1.7786    0.0003 O   0  0  0  0  0  0  0  0  0  0  0  0
    1.9135   -0.4344    0.0000 C   0  0  0  0  0  0  0  0  0  0  0  0
   -2.7672   -0.0383   -0.0003 C   0  0  0  0  0  0  0  0  0  0  0  0
    1.6042   -1.9002    0.0004 C   0  0  0  0  0  0  0  0  0  0  0  0
    3.1700    0.0343   -0.0010 C   0  0  0  0  0  0  0  0  0  0  0  0
   -3.7706   -0.6973   -0.0002 C   0  0  0  0  0  0  0  0  0  0  0  0
  1  2  1  0  0  0  0
  1  3  1  0  0  0  0
  4  2  2  0  0  0  0
  5  2  1  0  0  0  0
  3  6  1  0  0  0  0
  5  7  1  0  0  0  0
  5  8  2  0  0  0  0
  6  9  3  0  0  0  0
M  END
>  <Name>
prop-2-ynyl 2-methylprop-2-enoate

>  <IGC50>
2.63

>  <CAS>
13861-22-8

>  <SET>
ws

>  <Species>
Tetrahymena pyriformis

>  <Test duration>
48h

$$$$

  Mrv1808 07152009203D          

  7  6  0  0  0  0            999 V2000
    1.3789    3.3369    1.9281 C   0  0  0  0  0  0  0  0  0  0  0  0
    1.9571    1.9272    1.8187 C   0  0  2  0  0  0  0  0  0  0  0  0
    0.9607    1.0299    1.0858 C   0  0  0  0  0  0  0  0  0  0  0  0
    2.2075    1.3629    3.2153 C   0  0  0  0  0  0  0  0  0  0  0  0
    3.2712    1.9575    1.0217 C   0  0  0  0  0  0  0  0  0  0  0  0
    4.3116    2.8461    1.6581 C   0  0  0  0  0  0  0  0  0  0  0  0
    5.4969    2.6077    1.6267 O   0  0  0  0  0  0  0  0  0  0  0  0
  1  2  1  0  0  0  0
  2  3  1  0  0  0  0
  2  4  1  0  0  0  0
  2  5  1  0  0  0  0
  5  6  1  0  0  0  0
  6  7  2  0  0  0  0
M  END
>  <Name>
3,3-Dimethylbutyraldehyde

>  <IGC50>
2.626

>  <CAS>
2987-16-8

>  <SET>
ws

>  <Species>
Tetrahymena pyriformis

>  <Test duration>
48h

$$$$

  Mrv1808 07152009202D          

  7  6  0  0  0  0            999 V2000
    0.0000    0.0000    0.0000 C   0  0  0  0  0  0  0  0  0  0  0  0
    0.7111    0.4183    0.0000 C   0  0  0  0  0  0  0  0  0  0  0  0
    1.4221    0.0000    0.0000 C   0  0  0  0  0  0  0  0  0  0  0  0
    2.1332    0.4183    0.0000 C   0  0  0  0  0  0  0  0  0  0  0  0
    2.8861    0.0000    0.0000 C   0  0  0  0  0  0  0  0  0  0  0  0
    3.5553    0.4183    0.0000 C   0  0  0  0  0  0  0  0  0  0  0  0
    4.3082    0.8365    0.0000 N   0  0  0  0  0  0  0  0  0  0  0  0
  1  2  1  0  0  0  0
  2  3  1  0  0  0  0
  3  4  1  0  0  0  0
  4  5  1  0  0  0  0
  5  6  1  0  0  0  0
  6  7  3  0  0  0  0
M  END
>  <Name>
Hexanenitrile

>  <IGC50>
2.624

>  <CAS>
628-73-9

>  <SET>
ws

>  <Species>
Tetrahymena pyriformis

>  <Test duration>
48h

$$$$

  Mrv1808 07152009202D          

  9  8  0  0  0  0            999 V2000
    0.7145    0.2062    0.0000 C   0  0  0  0  0  0  0  0  0  0  0  0
    0.0000   -0.2062    0.0000 C   0  0  0  0  0  0  0  0  0  0  0  0
    0.7145    1.0313    0.0000 O   0  0  0  0  0  0  0  0  0  0  0  0
    1.4289   -0.2062    0.0000 O   0  0  0  0  0  0  0  0  0  0  0  0
   -0.7145    0.2062    0.0000 C   0  0  0  0  0  0  0  0  0  0  0  0
    0.0000   -1.0313    0.0000 C   0  0  0  0  0  0  0  0  0  0  0  0
    2.1434    0.2062    0.0000 C   0  0  0  0  0  0  0  0  0  0  0  0
   -1.4289   -0.2062    0.0000 C   0  0  0  0  0  0  0  0  0  0  0  0
   -2.1434    0.2062    0.0000 C   0  0  0  0  0  0  0  0  0  0  0  0
  1  2  1  0  0  0  0
  1  3  2  0  0  0  0
  1  4  1  0  0  0  0
  2  5  2  0  0  0  0
  2  6  1  0  0  0  0
  4  7  1  0  0  0  0
  5  8  1  0  0  0  0
  8  9  1  0  0  0  0
M  END
>  <Name>
METHYL TRANS-2-METHYL-2-PENTENOATE

>  <IGC50>
2.624

>  <CAS>
1567-14-2

>  <SET>
ws

>  <Species>
Tetrahymena pyriformis

>  <Test duration>
48h

$$$$

  Mrv1808 07152009202D          

 16 15  0  0  0  0            999 V2000
    1.4221    0.8366    0.0000 C   0  0  0  0  0  0  0  0  0  0  0  0
    2.1750    1.2549    0.0000 C   0  0  0  0  0  0  0  0  0  0  0  0
    1.4221    0.0000    0.0000 O   0  0  0  0  0  0  0  0  0  0  0  0
    0.7111    1.2549    0.0000 O   0  0  0  0  0  0  0  0  0  0  0  0
    2.8861    0.8366    0.0000 C   0  0  0  0  0  0  0  0  0  0  0  0
    0.7111    2.0495    0.0000 C   0  0  0  0  0  0  0  0  0  0  0  0
    3.6390    1.2549    0.0000 C   0  0  0  0  0  0  0  0  0  0  0  0
    0.0000    2.4678    0.0000 C   0  0  0  0  0  0  0  0  0  0  0  0
    4.3082    0.8366    0.0000 C   0  0  0  0  0  0  0  0  0  0  0  0
    5.0193    1.2549    0.0000 C   0  0  0  0  0  0  0  0  0  0  0  0
    4.3082    0.0000    0.0000 O   0  0  0  0  0  0  0  0  0  0  0  0
    5.7722    0.8366    0.0000 C   0  0  0  0  0  0  0  0  0  0  0  0
    6.4833    1.2549    0.0000 O   0  0  0  0  0  0  0  0  0  0  0  0
    5.7722    0.0000    0.0000 O   0  0  0  0  0  0  0  0  0  0  0  0
    7.2362    0.8366    0.0000 C   0  0  0  0  0  0  0  0  0  0  0  0
    7.9473    1.2549    0.0000 C   0  0  0  0  0  0  0  0  0  0  0  0
  1  2  1  0  0  0  0
  1  3  2  0  0  0  0
  1  4  1  0  0  0  0
  2  5  1  0  0  0  0
  4  6  1  0  0  0  0
  5  7  1  0  0  0  0
  6  8  1  0  0  0  0
  7  9  1  0  0  0  0
  9 10  1  0  0  0  0
  9 11  2  0  0  0  0
 10 12  1  0  0  0  0
 13 12  1  0  0  0  0
 12 14  2  0  0  0  0
 15 13  1  0  0  0  0
 16 15  1  0  0  0  0
M  END
>  <Name>
Diethyl 3-oxoheptanedioate

>  <IGC50>
2.622

>  <CAS>
40420-22-2

>  <SET>
ws

>  <Species>
Tetrahymena pyriformis

>  <Test duration>
48h

$$$$

  Mrv1808 07152009202D          

  7  6  0  0  0  0            999 V2000
    0.0000   -0.4112    0.0000 C   0  0  0  0  0  0  0  0  0  0  0  0
    0.7153    0.0000    0.0000 C   0  0  0  0  0  0  0  0  0  0  0  0
    1.4263   -0.4112    0.0000 C   0  0  0  0  0  0  0  0  0  0  0  0
    2.1416    0.0000    0.0000 C   0  0  0  0  0  0  0  0  0  0  0  0
    2.8569   -0.4112    0.0000 C   0  0  0  0  0  0  0  0  0  0  0  0
    3.5679    0.0000    0.0000 C   0  0  0  0  0  0  0  0  0  0  0  0
    4.2832   -0.4112    0.0000 O   0  0  0  0  0  0  0  0  0  0  0  0
  1  2  1  0  0  0  0
  2  3  1  0  0  0  0
  3  4  1  0  0  0  0
  4  5  1  0  0  0  0
  5  6  1  0  0  0  0
  6  7  1  0  0  0  0
M  END
>  <Name>
Hexyl alcohol

>  <IGC50>
2.621

>  <CAS>
111-27-3

>  <SET>
ws

>  <Species>
Tetrahymena pyriformis

>  <Test duration>
48h

$$$$

  Mrv1808 07152009203D          

 10 10  0  0  0  0            999 V2000
    0.9729    0.6853   -0.4369 O   0  0  0  0  0  0  0  0  0  0  0  0
    2.2384    0.6354    0.0849 C   0  0  0  0  0  0  0  0  0  0  0  0
    0.4345   -0.6457   -0.5563 C   0  0  1  0  0  0  0  0  0  0  0  0
    2.7072   -0.7766    0.3465 C   0  0  0  0  0  0  0  0  0  0  0  0
    2.7577    1.7157    0.2327 O   0  0  0  0  0  0  0  0  0  0  0  0
    1.5288   -1.6382   -0.0976 C   0  0  0  0  0  0  0  0  0  0  0  0
   -0.8437   -0.7725    0.2753 C   0  0  0  0  0  0  0  0  0  0  0  0
   -1.9875    0.0429   -0.3052 C   0  0  0  0  0  0  0  0  0  0  0  0
   -3.2558   -0.1287    0.5161 C   0  0  0  0  0  0  0  0  0  0  0  0
   -4.3979    0.6786   -0.0582 C   0  0  0  0  0  0  0  0  0  0  0  0
  1  2  1  0  0  0  0
  1  3  1  0  0  0  0
  2  4  1  0  0  0  0
  2  5  2  0  0  0  0
  6  3  1  0  0  0  0
  3  7  1  0  0  0  0
  4  6  1  0  0  0  0
  7  8  1  0  0  0  0
  8  9  1  0  0  0  0
  9 10  1  0  0  0  0
M  END
>  <Name>
2(3H)-Furanone, dihydro-5-butyl-

>  <IGC50>
2.62

>  <CAS>
104-50-7

>  <SET>
ws

>  <Species>
Tetrahymena pyriformis

>  <Test duration>
48h

$$$$

  Mrv1808 07152009202D          

 10 10  0  0  0  0            999 V2000
    3.5973    1.2967    0.0000 C   0  0  0  0  0  0  0  0  0  0  0  0
    2.8861    1.6731    0.0000 C   0  0  0  0  0  0  0  0  0  0  0  0
    4.3084    0.8784    0.0000 N   0  0  0  0  0  0  0  0  0  0  0  0
    2.1751    1.2549    0.0000 C   0  0  0  0  0  0  0  0  0  0  0  0
    1.4640    1.6731    0.0000 C   0  0  0  0  0  0  0  0  0  0  0  0
    2.1751    0.4183    0.0000 C   0  0  0  0  0  0  0  0  0  0  0  0
    0.7529    1.2549    0.0000 C   0  0  0  0  0  0  0  0  0  0  0  0
    1.4640    0.0000    0.0000 C   0  0  0  0  0  0  0  0  0  0  0  0
    0.7529    0.4183    0.0000 C   0  0  0  0  0  0  0  0  0  0  0  0
    0.0000    0.0000    0.0000 O   0  0  0  0  0  0  0  0  0  0  0  0
  1  2  1  0  0  0  0
  1  3  3  0  0  0  0
  2  4  1  0  0  0  0
  5  4  2  0  0  0  0
  4  6  1  0  0  0  0
  7  5  1  0  0  0  0
  6  8  2  0  0  0  0
  9  7  2  0  0  0  0
  8  9  1  0  0  0  0
  9 10  1  0  0  0  0
M  END
>  <Name>
Benzeneacetonitrile, 4-hydroxy- (9CI)

>  <IGC50>
2.62

>  <CAS>
14191-95-8

>  <SET>
ws

>  <Species>
Tetrahymena pyriformis

>  <Test duration>
48h

$$$$

  Mrv1808 07152009203D          

 10 10  0  0  0  0            999 V2000
    1.0936    0.6695    1.9204 C   0  0  0  0  0  0  0  0  0  0  0  0
    1.7784    2.0038    2.0365 C   0  0  0  0  0  0  0  0  0  0  0  0
    1.1642    3.0511    2.0975 O   0  0  0  0  0  0  0  0  0  0  0  0
    3.2722    1.9632    2.0805 C   0  0  0  0  0  0  0  0  0  0  0  0
    3.9735    1.3937    1.0210 C   0  0  0  0  0  0  0  0  0  0  0  0
    3.9532    2.5034    3.1717 C   0  0  0  0  0  0  0  0  0  0  0  0
    5.3738    1.3693    1.0720 C   0  0  0  0  0  0  0  0  0  0  0  0
    5.3428    2.4687    3.2108 C   0  0  0  0  0  0  0  0  0  0  0  0
    6.0015    0.7956    0.0000 O   0  0  0  0  0  0  0  0  0  0  0  0
    6.0654    1.9034    2.1674 C   0  0  0  0  0  0  0  0  0  0  0  0
  1  2  1  0  0  0  0
  2  3  2  0  0  0  0
  2  4  1  0  0  0  0
  5  4  2  0  0  0  0
  4  6  1  0  0  0  0
  7  5  1  0  0  0  0
  6  8  2  0  0  0  0
  7  9  1  0  0  0  0
 10  7  2  0  0  0  0
  8 10  1  0  0  0  0
M  END
>  <Name>
Acetophenone, 3'-hydroxy- (8CI)

>  <IGC50>
2.62

>  <CAS>
121-71-1

>  <SET>
ws

>  <Species>
Tetrahymena pyriformis

>  <Test duration>
48h

$$$$

  Mrv1808 07152009202D          

 11 11  0  0  0  0            999 V2000
    2.5618    0.0000    0.0000 C   0  0  0  0  0  0  0  0  0  0  0  0
    1.7368    0.0000    0.0000 C   0  0  0  0  0  0  0  0  0  0  0  0
    2.9960    0.6947    0.0000 C   0  0  0  0  0  0  0  0  0  0  0  0
    1.3025    0.6947    0.0000 C   0  0  0  0  0  0  0  0  0  0  0  0
    2.5618    1.4328    0.0000 C   0  0  0  0  0  0  0  0  0  0  0  0
    3.8643    0.6947    0.0000 C   0  0  0  0  0  0  0  0  0  0  0  0
    1.7368    1.4328    0.0000 C   0  0  0  0  0  0  0  0  0  0  0  0
    0.4342    0.6947    0.0000 C   0  0  0  0  0  0  0  0  0  0  0  0
    4.6893    0.6947    0.0000 N   0  0  0  0  0  0  0  0  0  0  0  0
    0.0000    0.0000    0.0000 N   0  0  0  0  0  0  0  0  0  0  0  0
    0.0000    1.4328    0.0000 O   0  0  0  0  0  0  0  0  0  0  0  0
  2  1  2  0  0  0  0
  1  3  1  0  0  0  0
  4  2  1  0  0  0  0
  3  5  2  0  0  0  0
  3  6  1  0  0  0  0
  7  4  2  0  0  0  0
  4  8  1  0  0  0  0
  5  7  1  0  0  0  0
  6  9  3  0  0  0  0
  8 10  1  0  0  0  0
  8 11  2  0  0  0  0
M  END
>  <Name>
Benzamide, p-cyano- (8CI)

>  <IGC50>
2.62

>  <CAS>
3034-34-2

>  <SET>
ws

>  <Species>
Tetrahymena pyriformis

>  <Test duration>
48h

$$$$

  Mrv1808 07152009203D          

  8  7  0  0  0  0            999 V2000
   -0.0889    0.3151   -0.0014 C   0  0  0  0  0  0  0  0  0  0  0  0
    1.1566   -0.5404   -0.0031 C   0  0  0  0  0  0  0  0  0  0  0  0
   -0.1854    1.5239   -0.0014 O   0  0  0  0  0  0  0  0  0  0  0  0
   -1.2246   -0.4618   -0.0001 O   0  0  0  0  0  0  0  0  0  0  0  0
    2.4328    0.2854    0.0039 C   0  0  0  0  0  0  0  0  0  0  0  0
   -2.4732    0.1394    0.0009 C   0  0  0  0  0  0  0  0  0  0  0  0
    3.6533   -0.6075    0.0001 C   0  0  0  0  0  0  0  0  0  0  0  0
   -3.5230   -0.6824    0.0012 C   0  0  0  0  0  0  0  0  0  0  0  0
  1  2  1  0  0  0  0
  1  3  2  0  0  0  0
  1  4  1  0  0  0  0
  2  5  1  0  0  0  0
  4  6  1  0  0  0  0
  5  7  1  0  0  0  0
  6  8  2  0  0  0  0
M  END
>  <Name>
Butanoic acid, ethenyl ester (9CI)

>  <IGC50>
2.618

>  <CAS>
123-20-6

>  <SET>
ws

>  <Species>
Tetrahymena pyriformis

>  <Test duration>
48h

$$$$

  Mrv1808 07152009202D          

  9  8  0  0  0  0            999 V2000
    2.1751    1.2549    0.0000 C   0  0  0  0  0  0  0  0  0  0  0  0
    1.4640    0.8365    0.0000 C   0  0  0  0  0  0  0  0  0  0  0  0
    2.8862    0.8365    0.0000 C   0  0  0  0  0  0  0  0  0  0  0  0
    0.7111    1.2549    0.0000 C   0  0  0  0  0  0  0  0  0  0  0  0
    1.4640    0.0000    0.0000 O   0  0  0  0  0  0  0  0  0  0  0  0
    3.6391    1.2549    0.0000 C   0  0  0  0  0  0  0  0  0  0  0  0
    2.8862    0.0000    0.0000 O   0  0  0  0  0  0  0  0  0  0  0  0
    0.0000    0.8365    0.0000 C   0  0  0  0  0  0  0  0  0  0  0  0
    4.3502    0.8365    0.0000 C   0  0  0  0  0  0  0  0  0  0  0  0
  1  2  1  0  0  0  0
  1  3  1  0  0  0  0
  2  4  1  0  0  0  0
  2  5  2  0  0  0  0
  3  6  1  0  0  0  0
  3  7  2  0  0  0  0
  4  8  1  0  0  0  0
  6  9  1  0  0  0  0
M  END
>  <Name>
3,5-Heptanedione

>  <IGC50>
2.618

>  <CAS>
7424-54-6

>  <SET>
ws

>  <Species>
Tetrahymena pyriformis

>  <Test duration>
48h

$$$$

  Mrv1808 07152009202D          

  7  6  0  0  0  0            999 V2000
    2.8461    0.7424    0.0000 C   0  0  0  0  0  0  0  0  0  0  0  0
    2.0211    0.7424    0.0000 C   0  0  0  0  0  0  0  0  0  0  0  0
    3.2997    0.0000    0.0000 C   0  0  0  0  0  0  0  0  0  0  0  0
    1.1962    0.7424    0.0000 C   0  0  0  0  0  0  0  0  0  0  0  0
    4.1660    0.0000    0.0000 C   0  0  0  0  0  0  0  0  0  0  0  0
    0.3713    0.7424    0.0000 C   0  0  0  0  0  0  0  0  0  0  0  0
    0.0000    1.4436    0.0000 O   0  0  0  0  0  0  0  0  0  0  0  0
  1  2  1  0  0  0  0
  1  3  1  0  0  0  0
  2  4  3  0  0  0  0
  3  5  1  0  0  0  0
  4  6  1  0  0  0  0
  6  7  1  0  0  0  0
M  END
>  <Name>
Hex-2-yn-1-ol

>  <IGC50>
2.616

>  <CAS>
764-60-3

>  <SET>
ws

>  <Species>
Tetrahymena pyriformis

>  <Test duration>
48h

$$$$

  Mrv1808 07152009202D          

 13 13  0  0  0  0            999 V2000
    0.0012    1.2395    0.0000 C   0  0  0  0  0  0  0  0  0  0  0  0
    0.0000    0.4126    0.0000 C   0  0  0  0  0  0  0  0  0  0  0  0
    0.7126    1.6519    0.0000 C   0  0  0  0  0  0  0  0  0  0  0  0
    0.7144    0.0000    0.0000 C   0  0  0  0  0  0  0  0  0  0  0  0
    1.4275    1.2431    0.0000 C   0  0  0  0  0  0  0  0  0  0  0  0
    1.4303    0.4131    0.0000 C   0  0  0  0  0  0  0  0  0  0  0  0
    2.1221    1.6475    0.0000 N   0  0  0  0  0  0  0  0  0  0  0  0
    2.8216    1.2478    0.0000 C   0  0  0  0  0  0  0  0  0  0  0  0
    3.5169    1.6516    0.0000 N   0  0  0  0  0  0  0  0  0  0  0  0
    2.8174    0.4399    0.0000 N   0  0  0  0  0  0  0  0  0  0  0  0
    4.2165    1.2519    0.0000 C   0  0  0  0  0  0  0  0  0  0  0  0
    4.9118    1.6558    0.0000 N   0  0  0  0  0  0  0  0  0  0  0  0
    4.2123    0.4441    0.0000 N   0  0  0  0  0  0  0  0  0  0  0  0
  2  1  2  0  0  0  0
  1  3  1  0  0  0  0
  4  2  1  0  0  0  0
  3  5  2  0  0  0  0
  6  4  2  0  0  0  0
  5  7  1  0  0  0  0
  5  6  1  0  0  0  0
  7  8  1  0  0  0  0
  8  9  1  0  0  0  0
  8 10  2  0  0  0  0
  9 11  1  0  0  0  0
 11 12  1  0  0  0  0
 11 13  2  0  0  0  0
M  END
>  <Name>
Imidodicarbonimidic diamide, N-phenyl-

>  <IGC50>
2.61

>  <CAS>
102-02-3

>  <SET>
ws

>  <Species>
Tetrahymena pyriformis

>  <Test duration>
48h

$$$$

  Mrv1808 07152009202D          

  4  3  0  0  0  0            999 V2000
    0.0000    0.0000    0.0000 C   0  0  0  0  0  0  0  0  0  0  0  0
    0.7720    0.3860    0.0000 C   0  0  0  0  0  0  0  0  0  0  0  0
    1.5012    0.0000    0.0000 C   0  0  0  0  0  0  0  0  0  0  0  0
    2.1874    0.3860    0.0000 I   0  0  0  0  0  0  0  0  0  0  0  0
  1  2  1  0  0  0  0
  2  3  1  0  0  0  0
  3  4  1  0  0  0  0
M  END
>  <Name>
Propane, 1-iodo-

>  <IGC50>
2.61

>  <CAS>
107-08-4

>  <SET>
ws

>  <Species>
Tetrahymena pyriformis

>  <Test duration>
48h

$$$$

  Mrv1808 07152009202D          

 10 10  0  0  0  0            999 V2000
    0.8250    0.7012    0.0000 C   0  0  0  0  0  0  0  0  0  0  0  0
    1.2375    1.4438    0.0000 O   0  0  0  0  0  0  0  0  0  0  0  0
    1.2375    0.0000    0.0000 N   0  0  0  0  0  0  0  0  0  0  0  0
    0.0000    0.7012    0.0000 O   0  0  0  0  0  0  0  0  0  0  0  0
    2.0625    1.4438    0.0000 C   0  0  0  0  0  0  0  0  0  0  0  0
    2.4750    2.1450    0.0000 C   0  0  0  0  0  0  0  0  0  0  0  0
    2.4750    0.7012    0.0000 C   0  0  0  0  0  0  0  0  0  0  0  0
    3.3000    2.1450    0.0000 C   0  0  0  0  0  0  0  0  0  0  0  0
    3.3000    0.7012    0.0000 C   0  0  0  0  0  0  0  0  0  0  0  0
    3.7125    1.4438    0.0000 C   0  0  0  0  0  0  0  0  0  0  0  0
  1  2  1  0  0  0  0
  1  3  1  0  0  0  0
  1  4  2  0  0  0  0
  2  5  1  0  0  0  0
  6  5  2  0  0  0  0
  5  7  1  0  0  0  0
  8  6  1  0  0  0  0
  7  9  2  0  0  0  0
 10  8  2  0  0  0  0
  9 10  1  0  0  0  0
M  END
>  <Name>
Carbamic acid, phenyl ester (8CI)(9CI)

>  <IGC50>
2.61

>  <CAS>
622-46-8

>  <SET>
ws

>  <Species>
Tetrahymena pyriformis

>  <Test duration>
48h

$$$$

  Mrv1808 07152009203D          

 13 13  0  0  0  0            999 V2000
    4.1524    2.9067    1.6113 C   0  0  0  0  0  0  0  0  0  0  0  0
    2.7855    2.9950    1.8911 C   0  0  0  0  0  0  0  0  0  0  0  0
    4.8702    4.0320    1.1647 C   0  0  0  0  0  0  0  0  0  0  0  0
    4.7984    1.7064    1.8930 O   0  0  0  0  0  0  0  0  0  0  0  0
    2.1212    4.2107    1.7304 C   0  0  0  0  0  0  0  0  0  0  0  0
    4.1812    5.2551    1.0083 C   0  0  0  0  0  0  0  0  0  0  0  0
    6.1970    3.9054    0.7769 O   0  0  0  0  0  0  0  0  0  0  0  0
    4.9682    0.8765    0.7635 C   0  0  0  0  0  0  0  0  0  0  0  0
    2.8113    5.3377    1.2900 C   0  0  0  0  0  0  0  0  0  0  0  0
    0.6683    4.2712    2.0392 C   0  0  0  0  0  0  0  0  0  0  0  0
    4.9058    6.3337    0.5842 O   0  0  0  0  0  0  0  0  0  0  0  0
    7.1198    4.2651    1.7844 C   0  0  0  0  0  0  0  0  0  0  0  0
    0.0000    5.2742    1.9291 O   0  0  0  0  0  0  0  0  0  0  0  0
  1  2  2  0  0  0  0
  3  1  1  0  0  0  0
  1  4  1  0  0  0  0
  2  5  1  0  0  0  0
  6  3  2  0  0  0  0
  3  7  1  0  0  0  0
  4  8  1  0  0  0  0
  5  9  2  0  0  0  0
  5 10  1  0  0  0  0
  9  6  1  0  0  0  0
  6 11  1  0  0  0  0
  7 12  1  0  0  0  0
 10 13  2  0  0  0  0
M  END
>  <Name>
3,4-Dimethoxy-5-hydroxybenzaldehyde

>  <IGC50>
2.61

>  <CAS>
29865-90-5

>  <SET>
ws

>  <Species>
Tetrahymena pyriformis

>  <Test duration>
48h

$$$$

  Mrv1808 07152009202D          

 11 11  0  0  0  0            999 V2000
    3.2941   -1.4266    0.0000 C   0  0  0  0  0  0  0  0  0  0  0  0
    3.7054   -0.7114    0.0000 O   0  0  0  0  0  0  0  0  0  0  0  0
    3.7054   -2.1380    0.0000 O   0  0  0  0  0  0  0  0  0  0  0  0
    2.4715   -1.4266    0.0000 C   0  0  0  0  0  0  0  0  0  0  0  0
    2.0602   -2.1380    0.0000 C   0  0  0  0  0  0  0  0  0  0  0  0
    2.0602   -0.7114    0.0000 C   0  0  0  0  0  0  0  0  0  0  0  0
    1.2339   -2.1380    0.0000 C   0  0  0  0  0  0  0  0  0  0  0  0
    1.2339   -0.7114    0.0000 C   0  0  0  0  0  0  0  0  0  0  0  0
    2.4715    0.0000    0.0000 Cl  0  0  0  0  0  0  0  0  0  0  0  0
    0.8226   -1.4266    0.0000 C   0  0  0  0  0  0  0  0  0  0  0  0
    0.0000   -1.4266    0.0000 Cl  0  0  0  0  0  0  0  0  0  0  0  0
  1  2  2  0  0  0  0
  1  3  1  0  0  0  0
  1  4  1  0  0  0  0
  4  5  2  0  0  0  0
  4  6  1  0  0  0  0
  5  7  1  0  0  0  0
  8  6  2  0  0  0  0
  6  9  1  0  0  0  0
  7 10  2  0  0  0  0
 10  8  1  0  0  0  0
 10 11  1  0  0  0  0
M  END
>  <Name>
Benzoic acid, 2,4-dichloro-

>  <IGC50>
2.61

>  <CAS>
50-84-0

>  <SET>
ws

>  <Species>
Tetrahymena pyriformis

>  <Test duration>
48h

$$$$

  Mrv1808 07152009203D          

  9  9  0  0  0  0            999 V2000
   -0.9475    1.0012    0.0000 C   0  0  0  0  0  0  0  0  0  0  0  0
   -1.3557   -0.3382    0.0003 C   0  0  0  0  0  0  0  0  0  0  0  0
    0.4076    1.3513   -0.0009 C   0  0  0  0  0  0  0  0  0  0  0  0
   -1.9521    1.9293    0.0004 O   0  0  0  0  0  0  0  0  0  0  0  0
   -0.3642   -1.3249    0.0000 C   0  0  0  0  0  0  0  0  0  0  0  0
    1.3756    0.3449   -0.0011 C   0  0  0  0  0  0  0  0  0  0  0  0
    0.9993   -0.9954   -0.0008 C   0  0  0  0  0  0  0  0  0  0  0  0
   -0.6555   -2.6606    0.0002 O   0  0  0  0  0  0  0  0  0  0  0  0
    2.8134    0.7213    0.0010 C   0  0  0  0  0  0  0  0  0  0  0  0
  1  2  1  0  0  0  0
  1  3  2  0  0  0  0
  1  4  1  0  0  0  0
  2  5  2  0  0  0  0
  6  3  1  0  0  0  0
  5  7  1  0  0  0  0
  5  8  1  0  0  0  0
  7  6  2  0  0  0  0
  6  9  1  0  0  0  0
M  END
>  <Name>
1,3-Benzenediol, 5-methyl-

>  <IGC50>
2.61

>  <CAS>
504-15-4

>  <SET>
ws

>  <Species>
Tetrahymena pyriformis

>  <Test duration>
48h

$$$$

  Mrv1808 07152009203D          

 10 10  0  0  0  0            999 V2000
   -2.2590    0.3334   -0.5220 C   0  0  0  0  0  0  0  0  0  0  0  0
   -1.3919   -0.3801    0.5330 C   0  0  2  0  0  0  0  0  0  0  0  0
   -2.1602    1.7298   -0.4686 O   0  0  0  0  0  0  0  0  0  0  0  0
    0.0722   -0.1906    0.2454 C   0  0  0  0  0  0  0  0  0  0  0  0
   -1.7525   -1.8554    0.5885 C   0  0  0  0  0  0  0  0  0  0  0  0
    0.6511   -0.6881   -0.9242 C   0  0  0  0  0  0  0  0  0  0  0  0
    0.8716    0.4920    1.1649 C   0  0  0  0  0  0  0  0  0  0  0  0
    2.0070   -0.5046   -1.1689 C   0  0  0  0  0  0  0  0  0  0  0  0
    2.2277    0.6739    0.9173 C   0  0  0  0  0  0  0  0  0  0  0  0
    2.7976    0.1766   -0.2494 C   0  0  0  0  0  0  0  0  0  0  0  0
  1  2  1  0  0  0  0
  1  3  1  0  0  0  0
  2  4  1  0  0  0  0
  2  5  1  0  0  0  0
  4  6  1  0  0  0  0
  4  7  2  0  0  0  0
  6  8  2  0  0  0  0
  9  7  1  0  0  0  0
  8 10  1  0  0  0  0
 10  9  2  0  0  0  0
M  END
>  <Name>
Phenethyl alcohol, beta-methyl-

>  <IGC50>
2.6

>  <CAS>
1123-85-9

>  <SET>
ws

>  <Species>
Tetrahymena pyriformis

>  <Test duration>
48h

$$$$

  Mrv1808 07152009203D          

 10 10  0  0  0  0            999 V2000
    1.2441   -0.1409    0.8177 O   0  0  0  0  0  0  0  0  0  0  0  0
   -0.0833   -0.0260    0.4608 C   0  0  0  0  0  0  0  0  0  0  0  0
    2.1203    0.0370   -0.2229 C   0  0  0  0  0  0  0  0  0  0  0  0
   -0.7354   -1.3155    0.0528 C   0  0  0  0  0  0  0  0  0  0  0  0
   -0.7399    1.1447    0.4954 C   0  0  0  0  0  0  0  0  0  0  0  0
    1.8479    0.2785   -1.3919 O   0  0  0  0  0  0  0  0  0  0  0  0
    3.5235   -0.0983    0.2916 C   0  0  0  0  0  0  0  0  0  0  0  0
   -2.2639   -1.2314    0.0277 C   0  0  0  0  0  0  0  0  0  0  0  0
   -2.1800    1.2890    0.0992 C   0  0  0  0  0  0  0  0  0  0  0  0
   -2.7333    0.0628   -0.6303 C   0  0  0  0  0  0  0  0  0  0  0  0
  1  2  1  0  0  0  0
  1  3  1  0  0  0  0
  4  2  1  0  0  0  0
  2  5  2  0  0  0  0
  6  3  2  0  0  0  0
  3  7  1  0  0  0  0
  8  4  1  0  0  0  0
  9  5  1  0  0  0  0
  8 10  1  0  0  0  0
 10  9  1  0  0  0  0
M  END
>  <Name>
cyclohexen-1-yl ethanoate

>  <IGC50>
2.6

>  <CAS>
1424-22-2

>  <SET>
ws

>  <Species>
Tetrahymena pyriformis

>  <Test duration>
48h

$$$$

  Mrv1808 07152009203D          

 11 11  0  0  0  0            999 V2000
    1.7226    0.4293   -0.2361 C   0  0  0  0  0  0  0  0  0  0  0  0
    0.5990    0.4163   -1.2545 C   0  0  0  0  0  0  0  0  0  0  0  0
    2.1190    1.3724    0.4183 O   0  0  0  0  0  0  0  0  0  0  0  0
    2.3319   -0.7861   -0.0917 O   0  0  0  0  0  0  0  0  0  0  0  0
   -0.7124    0.1576   -0.5856 C   0  0  0  0  0  0  0  0  0  0  0  0
    3.3787   -0.9135    0.8465 C   0  0  0  0  0  0  0  0  0  0  0  0
   -1.4370    1.2150   -0.0328 C   0  0  0  0  0  0  0  0  0  0  0  0
   -1.2255   -1.1388   -0.5252 C   0  0  0  0  0  0  0  0  0  0  0  0
   -2.6627    0.9742    0.5774 C   0  0  0  0  0  0  0  0  0  0  0  0
   -2.4522   -1.3739    0.0855 C   0  0  0  0  0  0  0  0  0  0  0  0
   -3.1715   -0.3190    0.6370 C   0  0  0  0  0  0  0  0  0  0  0  0
  1  2  1  0  0  0  0
  1  3  2  0  0  0  0
  1  4  1  0  0  0  0
  2  5  1  0  0  0  0
  4  6  1  0  0  0  0
  5  7  1  0  0  0  0
  5  8  2  0  0  0  0
  7  9  2  0  0  0  0
 10  8  1  0  0  0  0
  9 11  1  0  0  0  0
 11 10  2  0  0  0  0
M  END
>  <Name>
Acetic acid, phenyl-, methyl ester

>  <IGC50>
2.6

>  <CAS>
101-41-7

>  <SET>
ws

>  <Species>
Tetrahymena pyriformis

>  <Test duration>
48h

$$$$

  Mrv1808 07152009202D          

  5  4  0  0  0  0            999 V2000
    1.2368   -2.1435    0.0000 C   0  0  0  0  0  0  0  0  0  0  0  0
    0.8253   -1.4297    0.0000 C   0  0  0  0  0  0  0  0  0  0  0  0
    0.0000   -1.4297    0.0000 O   0  0  0  0  0  0  0  0  0  0  0  0
    1.2368   -0.7138    0.0000 C   0  0  0  0  0  0  0  0  0  0  0  0
    1.6505    0.0000    0.0000 C   0  0  0  0  0  0  0  0  0  0  0  0
  1  2  1  0  0  0  0
  2  3  1  0  0  0  0
  2  4  1  0  0  0  0
  4  5  3  0  0  0  0
M  END
>  <Name>
3-Butyn-2-ol

>  <IGC50>
2.598

>  <CAS>
65337-13-5

>  <SET>
ws

>  <Species>
Tetrahymena pyriformis

>  <Test duration>
48h

$$$$

  Mrv1808 07152009203D          

 12 12  0  0  0  0            999 V2000
    0.7074    2.7301    0.0285 Cl  0  0  0  0  0  0  0  0  0  0  0  0
   -0.1116    1.2081    0.0194 C   0  0  0  0  0  0  0  0  0  0  0  0
    0.5856    0.0000    0.0269 C   0  0  0  0  0  0  0  0  0  0  0  0
   -1.5064    1.2084    0.0047 C   0  0  0  0  0  0  0  0  0  0  0  0
   -0.1120   -1.2079    0.0198 C   0  0  0  0  0  0  0  0  0  0  0  0
    2.0477    0.0001    0.0427 C   0  0  0  0  0  0  0  0  0  0  0  0
   -2.2040    0.0004   -0.0025 C   0  0  0  0  0  0  0  0  0  0  0  0
    0.7061   -2.7304    0.0287 Cl  0  0  0  0  0  0  0  0  0  0  0  0
   -1.5068   -1.2077    0.0051 C   0  0  0  0  0  0  0  0  0  0  0  0
    2.5739   -0.0012   -1.2095 O   0  0  0  0  0  0  0  0  0  0  0  0
    2.7449    0.0002    1.0570 O   0  0  0  0  0  0  0  0  0  0  0  0
   -3.9249    0.0000   -0.0208 Cl  0  0  0  0  0  0  0  0  0  0  0  0
  1  2  1  0  0  0  0
  3  2  2  0  0  0  0
  2  4  1  0  0  0  0
  3  5  1  0  0  0  0
  3  6  1  0  0  0  0
  4  7  2  0  0  0  0
  8  5  1  0  0  0  0
  5  9  2  0  0  0  0
 10  6  1  0  0  0  0
 11  6  2  0  0  0  0
 12  7  1  0  0  0  0
  9  7  1  0  0  0  0
M  END
>  <Name>
2,4,6-trichlorobenzoic acid

>  <IGC50>
2.59

>  <CAS>
50-43-1

>  <SET>
ws

>  <Species>
Tetrahymena pyriformis

>  <Test duration>
48h

$$$$

  Mrv1808 07152009202D          

 11 11  0  0  0  0            999 V2000
    2.8847   -0.7125    0.0000 O   0  0  0  0  0  0  0  0  0  0  0  0
    2.4722   -1.4279    0.0000 C   0  0  0  0  0  0  0  0  0  0  0  0
    2.8847   -2.1404    0.0000 O   0  0  0  0  0  0  0  0  0  0  0  0
    1.6471   -1.4279    0.0000 C   0  0  0  0  0  0  0  0  0  0  0  0
    1.2375   -2.1404    0.0000 C   0  0  0  0  0  0  0  0  0  0  0  0
    1.2375   -0.7125    0.0000 C   0  0  0  0  0  0  0  0  0  0  0  0
    0.4125   -2.1404    0.0000 C   0  0  0  0  0  0  0  0  0  0  0  0
    0.4125   -0.7125    0.0000 C   0  0  0  0  0  0  0  0  0  0  0  0
    1.6471    0.0000    0.0000 Cl  0  0  0  0  0  0  0  0  0  0  0  0
    0.0000   -1.4279    0.0000 C   0  0  0  0  0  0  0  0  0  0  0  0
    0.0000    0.0000    0.0000 Cl  0  0  0  0  0  0  0  0  0  0  0  0
  1  2  1  0  0  0  0
  2  3  2  0  0  0  0
  2  4  1  0  0  0  0
  4  5  2  0  0  0  0
  4  6  1  0  0  0  0
  5  7  1  0  0  0  0
  8  6  2  0  0  0  0
  6  9  1  0  0  0  0
  7 10  2  0  0  0  0
 10  8  1  0  0  0  0
  8 11  1  0  0  0  0
M  END
>  <Name>
Benzoic acid, 2,3-dichloro-

>  <IGC50>
2.59

>  <CAS>
50-45-3

>  <SET>
ws

>  <Species>
Tetrahymena pyriformis

>  <Test duration>
48h

$$$$

  Mrv1808 07152009203D          

 11 11  0  0  0  0            999 V2000
    1.9466    0.0146    0.0834 C   0  0  1  0  0  0  0  0  0  0  0  0
    0.8815    0.0162   -1.0441 C   0  0  0  0  0  0  0  0  0  0  0  0
    3.3397   -0.0885   -0.5499 C   0  0  0  0  0  0  0  0  0  0  0  0
    1.8551    1.2987    0.9176 C   0  0  0  0  0  0  0  0  0  0  0  0
    1.8190   -1.1286    0.9184 O   0  0  0  0  0  0  0  0  0  0  0  0
   -0.5274    0.0067   -0.5450 C   0  0  0  0  0  0  0  0  0  0  0  0
   -1.1787   -1.2043   -0.2995 C   0  0  0  0  0  0  0  0  0  0  0  0
   -1.2136    1.2062   -0.3423 C   0  0  0  0  0  0  0  0  0  0  0  0
   -2.4949   -1.2129    0.1488 C   0  0  0  0  0  0  0  0  0  0  0  0
   -2.5296    1.1935    0.1051 C   0  0  0  0  0  0  0  0  0  0  0  0
   -3.1717   -0.0152    0.3525 C   0  0  0  0  0  0  0  0  0  0  0  0
  1  2  1  0  0  0  0
  1  3  1  0  0  0  0
  1  4  1  0  0  0  0
  1  5  1  0  0  0  0
  2  6  1  0  0  0  0
  6  7  1  0  0  0  0
  6  8  2  0  0  0  0
  7  9  2  0  0  0  0
 10  8  1  0  0  0  0
  9 11  1  0  0  0  0
 11 10  2  0  0  0  0
M  END
>  <Name>
Phenethyl alcohol, alpha,alpha-dimethyl-

>  <IGC50>
2.59

>  <CAS>
100-86-7

>  <SET>
ws

>  <Species>
Tetrahymena pyriformis

>  <Test duration>
48h

$$$$

  Mrv1808 07152009202D          

 10 10  0  0  0  0            999 V2000
    1.2375    0.7012    0.0000 C   0  0  0  0  0  0  0  0  0  0  0  0
    1.6500    1.4438    0.0000 C   0  0  0  0  0  0  0  0  0  0  0  0
    0.4125    0.7012    0.0000 N   0  0  0  0  0  0  0  0  0  0  0  0
    2.4750    1.4438    0.0000 C   0  0  0  0  0  0  0  0  0  0  0  0
    0.0000    0.0000    0.0000 C   0  0  0  0  0  0  0  0  0  0  0  0
    2.8875    2.1450    0.0000 C   0  0  0  0  0  0  0  0  0  0  0  0
    2.8875    0.7012    0.0000 C   0  0  0  0  0  0  0  0  0  0  0  0
    3.7125    2.1450    0.0000 C   0  0  0  0  0  0  0  0  0  0  0  0
    3.7125    0.7012    0.0000 C   0  0  0  0  0  0  0  0  0  0  0  0
    4.1250    1.4438    0.0000 C   0  0  0  0  0  0  0  0  0  0  0  0
  1  2  1  0  0  0  0
  1  3  1  0  0  0  0
  2  4  1  0  0  0  0
  3  5  1  0  0  0  0
  6  4  2  0  0  0  0
  4  7  1  0  0  0  0
  8  6  1  0  0  0  0
  7  9  2  0  0  0  0
 10  8  2  0  0  0  0
  9 10  1  0  0  0  0
M  END
>  <Name>
Benzeneethanamine, N-methyl- (9CI)

>  <IGC50>
2.59

>  <CAS>
589-08-2

>  <SET>
ws

>  <Species>
Tetrahymena pyriformis

>  <Test duration>
48h

$$$$

  Mrv1808 07152009203D          

  9  8  0  0  0  0            999 V2000
   -0.5145    0.3443    0.0647 C   0  0  0  0  0  0  0  0  0  0  0  0
   -1.7411   -0.5358    0.1343 C   0  0  0  0  0  0  0  0  0  0  0  0
   -0.4461    1.5572    0.0400 O   0  0  0  0  0  0  0  0  0  0  0  0
    0.6392   -0.3870    0.0388 O   0  0  0  0  0  0  0  0  0  0  0  0
   -3.0247    0.2305   -0.1414 C   0  0  0  0  0  0  0  0  0  0  0  0
    1.8859    0.3077   -0.0051 C   0  0  0  0  0  0  0  0  0  0  0  0
   -4.2288   -0.6793   -0.0449 C   0  0  0  0  0  0  0  0  0  0  0  0
    2.9751   -0.7618   -0.0185 C   0  0  0  0  0  0  0  0  0  0  0  0
    4.3416   -0.1167   -0.0648 C   0  0  0  0  0  0  0  0  0  0  0  0
  1  2  1  0  0  0  0
  1  3  2  0  0  0  0
  1  4  1  0  0  0  0
  2  5  1  0  0  0  0
  4  6  1  0  0  0  0
  5  7  1  0  0  0  0
  6  8  1  0  0  0  0
  8  9  1  0  0  0  0
M  END
>  <Name>
Butanoic acid, propyl ester

>  <IGC50>
2.586

>  <CAS>
105-66-8

>  <SET>
ws

>  <Species>
Tetrahymena pyriformis

>  <Test duration>
48h

$$$$

  Mrv1808 07152009203D          

 10  9  0  0  0  0            999 V2000
    5.2952    3.3830    2.0563 O   0  0  0  0  0  0  0  0  0  0  0  0
    3.9989    3.0581    1.7808 C   0  0  0  0  0  0  0  0  0  0  0  0
    6.3633    2.5230    1.6168 C   0  0  2  0  0  0  0  0  0  0  0  0
    3.0526    4.0387    2.3571 C   0  0  0  0  0  0  0  0  0  0  0  0
    3.7387    2.0647    1.1257 O   0  0  0  0  0  0  0  0  0  0  0  0
    6.9876    1.8846    2.8673 C   0  0  0  0  0  0  0  0  0  0  0  0
    7.3525    3.4156    0.8747 C   0  0  0  0  0  0  0  0  0  0  0  0
    1.7336    3.9279    2.1685 C   0  0  0  0  0  0  0  0  0  0  0  0
    7.9559    0.7806    2.5070 C   0  0  0  0  0  0  0  0  0  0  0  0
    0.7643    4.8959    2.7235 C   0  0  0  0  0  0  0  0  0  0  0  0
  1  2  1  0  0  0  0
  1  3  1  0  0  0  0
  2  4  1  0  0  0  0
  2  5  2  0  0  0  0
  3  6  1  0  0  0  0
  3  7  1  0  0  0  0
  4  8  2  0  0  0  0
  6  9  1  0  0  0  0
  8 10  1  0  0  0  0
M  END
>  <Name>
Crotonic acid, sec-butyl ester, (E)- (8CI)

>  <IGC50>
2.58

>  <CAS>
10371-45-6

>  <SET>
ws

>  <Species>
Tetrahymena pyriformis

>  <Test duration>
48h

$$$$

  Mrv1808 07152009202D          

  9  9  0  0  0  0            999 V2000
    0.8264   -2.8595    0.0000 N   0  0  0  0  0  0  0  0  0  0  0  0
    1.2382   -2.1446    0.0000 C   0  0  0  0  0  0  0  0  0  0  0  0
    0.8264   -1.4298    0.0000 C   0  0  0  0  0  0  0  0  0  0  0  0
    2.0646   -2.1446    0.0000 C   0  0  0  0  0  0  0  0  0  0  0  0
    1.2382   -0.7149    0.0000 C   0  0  0  0  0  0  0  0  0  0  0  0
    0.0000   -1.4298    0.0000 C   0  0  0  0  0  0  0  0  0  0  0  0
    2.4763   -1.4298    0.0000 C   0  0  0  0  0  0  0  0  0  0  0  0
    2.0646   -0.7149    0.0000 C   0  0  0  0  0  0  0  0  0  0  0  0
    0.8264    0.0000    0.0000 C   0  0  0  0  0  0  0  0  0  0  0  0
  1  2  1  0  0  0  0
  2  3  2  0  0  0  0
  2  4  1  0  0  0  0
  3  5  1  0  0  0  0
  3  6  1  0  0  0  0
  7  4  2  0  0  0  0
  5  8  2  0  0  0  0
  5  9  1  0  0  0  0
  8  7  1  0  0  0  0
M  END
>  <Name>
Benzenamine, 2,3-dimethyl-

>  <IGC50>
2.57

>  <CAS>
87-59-2

>  <SET>
ws

>  <Species>
Tetrahymena pyriformis

>  <Test duration>
48h

$$$$

  Mrv1808 07152009202D          

  9  9  0  0  0  0            999 V2000
    0.0000   -1.4298    0.0000 N   0  0  0  0  0  0  0  0  0  0  0  0
    0.8264   -1.4298    0.0000 C   0  0  0  0  0  0  0  0  0  0  0  0
    1.2382   -0.7149    0.0000 C   0  0  0  0  0  0  0  0  0  0  0  0
    1.2382   -2.1446    0.0000 C   0  0  0  0  0  0  0  0  0  0  0  0
    2.0646   -0.7149    0.0000 C   0  0  0  0  0  0  0  0  0  0  0  0
    0.8264    0.0000    0.0000 C   0  0  0  0  0  0  0  0  0  0  0  0
    2.0646   -2.1446    0.0000 C   0  0  0  0  0  0  0  0  0  0  0  0
    0.8264   -2.8595    0.0000 C   0  0  0  0  0  0  0  0  0  0  0  0
    2.4763   -1.4298    0.0000 C   0  0  0  0  0  0  0  0  0  0  0  0
  1  2  1  0  0  0  0
  2  3  2  0  0  0  0
  2  4  1  0  0  0  0
  3  5  1  0  0  0  0
  3  6  1  0  0  0  0
  7  4  2  0  0  0  0
  4  8  1  0  0  0  0
  5  9  2  0  0  0  0
  9  7  1  0  0  0  0
M  END
>  <Name>
Benzenamine, 2,6-dimethyl-

>  <IGC50>
2.57

>  <CAS>
87-62-7

>  <SET>
ws

>  <Species>
Tetrahymena pyriformis

>  <Test duration>
48h

$$$$

  Mrv1808 07152009203D          

 10 10  0  0  0  0            999 V2000
    1.4001    0.3042   -0.5183 C   0  0  2  0  0  0  0  0  0  0  0  0
    2.2337   -0.2430    0.6526 C   0  0  0  0  0  0  0  0  0  0  0  0
    1.7729    1.6618   -0.6862 O   0  0  0  0  0  0  0  0  0  0  0  0
   -0.0807    0.1439   -0.2511 C   0  0  0  0  0  0  0  0  0  0  0  0
    2.2558   -1.7544    0.6543 C   0  0  0  0  0  0  0  0  0  0  0  0
   -0.7983   -0.8530   -0.9126 C   0  0  0  0  0  0  0  0  0  0  0  0
   -0.7345    0.9733    0.6609 C   0  0  0  0  0  0  0  0  0  0  0  0
   -2.1575   -1.0143   -0.6674 C   0  0  0  0  0  0  0  0  0  0  0  0
   -2.0944    0.8117    0.9007 C   0  0  0  0  0  0  0  0  0  0  0  0
   -2.8072   -0.1815    0.2372 C   0  0  0  0  0  0  0  0  0  0  0  0
  1  2  1  0  0  0  0
  1  3  1  0  0  0  0
  1  4  1  0  0  0  0
  2  5  1  0  0  0  0
  4  6  1  0  0  0  0
  4  7  2  0  0  0  0
  6  8  2  0  0  0  0
  9  7  1  0  0  0  0
  8 10  1  0  0  0  0
 10  9  2  0  0  0  0
M  END
>  <Name>
Benzenemethanol, alpha-ethyl- (9CI)

>  <IGC50>
2.57

>  <CAS>
93-54-9

>  <SET>
ws

>  <Species>
Tetrahymena pyriformis

>  <Test duration>
48h

$$$$

  Mrv1808 07152009202D          

  7  7  0  0  0  0            999 V2000
    2.6536    0.4825    0.0000 C   0  0  0  0  0  0  0  0  0  0  0  0
    2.0505    1.0454    0.0000 C   0  0  0  0  0  0  0  0  0  0  0  0
    1.3268    0.8041    0.0000 C   0  0  0  0  0  0  0  0  0  0  0  0
    1.0454    0.0000    0.0000 C   0  0  0  0  0  0  0  0  0  0  0  0
    0.6433    1.2867    0.0000 S   0  0  0  0  0  0  0  0  0  0  0  0
    0.2412    0.0000    0.0000 C   0  0  0  0  0  0  0  0  0  0  0  0
    0.0000    0.8041    0.0000 C   0  0  0  0  0  0  0  0  0  0  0  0
  1  2  1  0  0  0  0
  2  3  1  0  0  0  0
  3  4  2  0  0  0  0
  5  3  1  0  0  0  0
  4  6  1  0  0  0  0
  7  5  1  0  0  0  0
  6  7  2  0  0  0  0
M  END
>  <Name>
2-ethylthiophene

>  <IGC50>
2.57

>  <CAS>
872-55-9

>  <SET>
ws

>  <Species>
Tetrahymena pyriformis

>  <Test duration>
48h

$$$$

  Mrv1808 07152009202D          

 15 15  0  0  0  0            999 V2000
    0.0000   -1.6559    0.0000 C   0  0  0  0  0  0  0  0  0  0  0  0
    0.4151   -2.3689    0.0000 C   0  0  0  0  0  0  0  0  0  0  0  0
    1.2409   -2.3689    0.0000 O   0  0  0  0  0  0  0  0  0  0  0  0
    1.6514   -1.6559    0.0000 P   0  0  0  0  0  0  0  0  0  0  0  0
    2.0666   -0.9385    0.0000 O   0  0  0  0  0  0  0  0  0  0  0  0
    2.3689   -2.0666    0.0000 C   0  0  0  0  0  0  0  0  0  0  0  0
    0.9385   -1.2409    0.0000 O   0  0  0  0  0  0  0  0  0  0  0  0
    3.0818   -1.6559    0.0000 C   0  0  0  0  0  0  0  0  0  0  0  0
    0.9385   -0.4151    0.0000 C   0  0  0  0  0  0  0  0  0  0  0  0
    3.0818   -0.8302    0.0000 C   0  0  0  0  0  0  0  0  0  0  0  0
    3.7992   -2.0666    0.0000 C   0  0  0  0  0  0  0  0  0  0  0  0
    1.6514    0.0000    0.0000 C   0  0  0  0  0  0  0  0  0  0  0  0
    3.7992   -0.4151    0.0000 C   0  0  0  0  0  0  0  0  0  0  0  0
    4.5122   -1.6559    0.0000 C   0  0  0  0  0  0  0  0  0  0  0  0
    4.5122   -0.8302    0.0000 C   0  0  0  0  0  0  0  0  0  0  0  0
  1  2  1  0  0  0  0
  2  3  1  0  0  0  0
  3  4  1  0  0  0  0
  4  5  2  0  0  0  0
  4  6  1  0  0  0  0
  4  7  1  0  0  0  0
  6  8  1  0  0  0  0
  7  9  1  0  0  0  0
  8 10  2  0  0  0  0
  8 11  1  0  0  0  0
  9 12  1  0  0  0  0
 10 13  1  0  0  0  0
 14 11  2  0  0  0  0
 13 15  2  0  0  0  0
 15 14  1  0  0  0  0
M  END
>  <Name>
Phosphonic acid, (phenylmethyl)-, diethyl ester

>  <IGC50>
2.57

>  <CAS>
1080-32-6

>  <SET>
ws

>  <Species>
Tetrahymena pyriformis

>  <Test duration>
48h

$$$$

  Mrv1808 07152009203D          

 10 10  0  0  0  0            999 V2000
   -2.7232    1.0974   -0.0002 O   0  5  0  0  0  0  0  0  0  0  0  0
   -2.1093   -0.0001    0.0002 N   0  3  0  0  0  0  0  0  0  0  0  0
   -2.7226   -1.0979    0.0000 O   0  0  0  0  0  0  0  0  0  0  0  0
   -0.6950    0.0003    0.0003 C   0  0  0  0  0  0  0  0  0  0  0  0
    0.0401    1.1681    0.0000 C   0  0  0  0  0  0  0  0  0  0  0  0
    0.0401   -1.1677    0.0000 C   0  0  0  0  0  0  0  0  0  0  0  0
    1.3887    1.2050   -0.0001 N   0  0  0  0  0  0  0  0  0  0  0  0
    1.3887   -1.2048   -0.0003 N   0  0  0  0  0  0  0  0  0  0  0  0
    1.9902    0.0001   -0.0003 C   0  0  0  0  0  0  0  0  0  0  0  0
    3.4024   -0.0004    0.0004 N   0  0  0  0  0  0  0  0  0  0  0  0
  1  2  1  0  0  0  0
  3  2  2  0  0  0  0
  2  4  1  0  0  0  0
  4  5  1  0  0  0  0
  4  6  2  0  0  0  0
  7  5  2  0  0  0  0
  8  6  1  0  0  0  0
  7  9  1  0  0  0  0
  8  9  2  0  0  0  0
 10  9  1  0  0  0  0
M  CHG  2   1  -1   2   1
M  END
>  <Name>
5-nitropyrimidin-2-amine

>  <IGC50>
2.57

>  <CAS>
3073-77-6

>  <SET>
ws

>  <Species>
Tetrahymena pyriformis

>  <Test duration>
48h

$$$$

  Mrv1808 07152009202D          

  5  4  0  0  0  0            999 V2000
    2.1429   -1.2364    0.0000 C   0  0  0  0  0  0  0  0  0  0  0  0
    1.4293   -0.8250    0.0000 C   0  0  0  0  0  0  0  0  0  0  0  0
    1.4293    0.0000    0.0000 C   0  0  0  0  0  0  0  0  0  0  0  0
    0.7136   -1.2364    0.0000 C   0  0  0  0  0  0  0  0  0  0  0  0
    0.0000   -0.8250    0.0000 O   0  0  0  0  0  0  0  0  0  0  0  0
  1  2  1  0  0  0  0
  2  3  1  0  0  0  0
  2  4  1  0  0  0  0
  4  5  2  0  0  0  0
M  END
>  <Name>
Propanal, 2-methyl-

>  <IGC50>
2.567

>  <CAS>
78-84-2

>  <SET>
ws

>  <Species>
Tetrahymena pyriformis

>  <Test duration>
48h

$$$$

  Mrv1808 07152009203D          

 12 12  0  0  0  0            999 V2000
   -2.7592    1.0047   -0.0005 O   0  0  0  0  0  0  0  0  0  0  0  0
   -1.3956    0.9723    0.0002 C   0  0  0  0  0  0  0  0  0  0  0  0
   -0.6973   -0.2353   -0.0002 C   0  0  0  0  0  0  0  0  0  0  0  0
   -0.6992    2.1808    0.0005 C   0  0  0  0  0  0  0  0  0  0  0  0
    0.6976   -0.2343   -0.0004 C   0  0  0  0  0  0  0  0  0  0  0  0
   -1.4326   -1.4684    0.0000 C   0  0  0  0  0  0  0  0  0  0  0  0
    0.6957    2.1818    0.0003 C   0  0  0  0  0  0  0  0  0  0  0  0
    1.3941    0.9743   -0.0001 C   0  0  0  0  0  0  0  0  0  0  0  0
    1.4350   -1.4662    0.0000 C   0  0  0  0  0  0  0  0  0  0  0  0
   -2.0243   -2.4605    0.0001 N   0  0  0  0  0  0  0  0  0  0  0  0
    2.7577    1.0083   -0.0004 O   0  0  0  0  0  0  0  0  0  0  0  0
    2.0281   -2.4574    0.0004 N   0  0  0  0  0  0  0  0  0  0  0  0
  1  2  1  0  0  0  0
  3  2  2  0  0  0  0
  2  4  1  0  0  0  0
  3  5  1  0  0  0  0
  3  6  1  0  0  0  0
  4  7  2  0  0  0  0
  5  8  2  0  0  0  0
  5  9  1  0  0  0  0
 10  6  3  0  0  0  0
  8  7  1  0  0  0  0
 11  8  1  0  0  0  0
 12  9  3  0  0  0  0
M  END
>  <Name>
3,6-dihydroxybenzene-1,2-dicarbonitrile

>  <IGC50>
2.56

>  <CAS>
4733-50-0

>  <SET>
ws

>  <Species>
Tetrahymena pyriformis

>  <Test duration>
48h

$$$$

  Mrv1808 07152009202D          

 14 14  0  0  0  0            999 V2000
    1.6500   -1.4286    0.0000 C   0  0  0  0  0  0  0  0  0  0  0  0
    1.2357   -2.1429    0.0000 C   0  0  0  0  0  0  0  0  0  0  0  0
    1.2357   -0.7143    0.0000 C   0  0  0  0  0  0  0  0  0  0  0  0
    2.4750   -1.4286    0.0000 C   0  0  0  0  0  0  0  0  0  0  0  0
    1.6500   -2.8571    0.0000 C   0  0  0  0  0  0  0  0  0  0  0  0
    0.4107   -2.1429    0.0000 C   0  0  0  0  0  0  0  0  0  0  0  0
    0.4107   -0.7143    0.0000 C   0  0  0  0  0  0  0  0  0  0  0  0
    2.8857   -2.1429    0.0000 O   0  0  0  0  0  0  0  0  0  0  0  0
    2.8857   -0.7143    0.0000 O   0  0  0  0  0  0  0  0  0  0  0  0
    1.2357   -3.5714    0.0000 O   0  0  0  0  0  0  0  0  0  0  0  0
    2.4750   -2.8571    0.0000 O   0  0  0  0  0  0  0  0  0  0  0  0
    0.0000   -1.4286    0.0000 C   0  0  0  0  0  0  0  0  0  0  0  0
    2.4750    0.0000    0.0000 C   0  0  0  0  0  0  0  0  0  0  0  0
    2.8857   -3.5714    0.0000 C   0  0  0  0  0  0  0  0  0  0  0  0
  1  2  2  0  0  0  0
  1  3  1  0  0  0  0
  1  4  1  0  0  0  0
  2  5  1  0  0  0  0
  2  6  1  0  0  0  0
  7  3  2  0  0  0  0
  4  8  2  0  0  0  0
  4  9  1  0  0  0  0
  5 10  2  0  0  0  0
  5 11  1  0  0  0  0
  6 12  2  0  0  0  0
 12  7  1  0  0  0  0
  9 13  1  0  0  0  0
 11 14  1  0  0  0  0
M  END
>  <Name>
1,2-Benzenedicarboxylic acid, dimethyl ester

>  <IGC50>
2.56

>  <CAS>
131-11-3

>  <SET>
ws

>  <Species>
Tetrahymena pyriformis

>  <Test duration>
48h

$$$$

  Mrv1808 07152009202D          

 10 10  0  0  0  0            999 V2000
    2.4721   -1.4279    0.0000 C   0  0  0  0  0  0  0  0  0  0  0  0
    2.8846   -2.1404    0.0000 O   0  0  0  0  0  0  0  0  0  0  0  0
    2.8846   -0.7125    0.0000 O   0  0  0  0  0  0  0  0  0  0  0  0
    1.6471   -1.4279    0.0000 C   0  0  0  0  0  0  0  0  0  0  0  0
    1.2375   -2.1404    0.0000 C   0  0  0  0  0  0  0  0  0  0  0  0
    1.2375   -0.7125    0.0000 C   0  0  0  0  0  0  0  0  0  0  0  0
    0.4125   -2.1404    0.0000 C   0  0  0  0  0  0  0  0  0  0  0  0
    0.4125   -0.7125    0.0000 C   0  0  0  0  0  0  0  0  0  0  0  0
    1.6471    0.0000    0.0000 Cl  0  0  0  0  0  0  0  0  0  0  0  0
    0.0000   -1.4279    0.0000 C   0  0  0  0  0  0  0  0  0  0  0  0
  1  2  2  0  0  0  0
  1  3  1  0  0  0  0
  1  4  1  0  0  0  0
  4  5  2  0  0  0  0
  4  6  1  0  0  0  0
  5  7  1  0  0  0  0
  8  6  2  0  0  0  0
  6  9  1  0  0  0  0
  7 10  2  0  0  0  0
 10  8  1  0  0  0  0
M  END
>  <Name>
Benzoic acid, 2-chloro-

>  <IGC50>
2.55

>  <CAS>
118-91-2

>  <SET>
ws

>  <Species>
Tetrahymena pyriformis

>  <Test duration>
48h

$$$$

  Mrv1808 07152009202D          

 11 11  0  0  0  0            999 V2000
    0.4125   -1.4278    0.0000 C   0  0  0  0  0  0  0  0  0  0  0  0
    0.0000   -2.1433    0.0000 O   0  0  0  0  0  0  0  0  0  0  0  0
    0.0000   -0.7154    0.0000 O   0  0  0  0  0  0  0  0  0  0  0  0
    1.2375   -1.4278    0.0000 C   0  0  0  0  0  0  0  0  0  0  0  0
    1.6471   -0.7154    0.0000 C   0  0  0  0  0  0  0  0  0  0  0  0
    1.6471   -2.1433    0.0000 C   0  0  0  0  0  0  0  0  0  0  0  0
    2.4721   -0.7154    0.0000 C   0  0  0  0  0  0  0  0  0  0  0  0
    2.4721   -2.1433    0.0000 C   0  0  0  0  0  0  0  0  0  0  0  0
    1.2375   -2.8557    0.0000 Cl  0  0  0  0  0  0  0  0  0  0  0  0
    2.8845    0.0000    0.0000 Cl  0  0  0  0  0  0  0  0  0  0  0  0
    2.8845   -1.4278    0.0000 C   0  0  0  0  0  0  0  0  0  0  0  0
  1  2  2  0  0  0  0
  1  3  1  0  0  0  0
  1  4  1  0  0  0  0
  4  5  2  0  0  0  0
  4  6  1  0  0  0  0
  5  7  1  0  0  0  0
  8  6  2  0  0  0  0
  6  9  1  0  0  0  0
  7 10  1  0  0  0  0
  7 11  2  0  0  0  0
 11  8  1  0  0  0  0
M  END
>  <Name>
Benzoic acid, 2,5-dichloro-

>  <IGC50>
2.54

>  <CAS>
50-79-3

>  <SET>
ws

>  <Species>
Tetrahymena pyriformis

>  <Test duration>
48h

$$$$

  Mrv1808 07152009202D          

  9  9  0  0  0  0            999 V2000
    1.6471    0.0000    0.0000 C   0  0  0  0  0  0  0  0  0  0  0  0
    2.4721    0.0000    0.0000 C   0  0  0  0  0  0  0  0  0  0  0  0
    1.2375   -0.7154    0.0000 C   0  0  0  0  0  0  0  0  0  0  0  0
    2.8846   -0.7154    0.0000 C   0  0  0  0  0  0  0  0  0  0  0  0
    1.6471   -1.4279    0.0000 C   0  0  0  0  0  0  0  0  0  0  0  0
    0.4125   -0.7154    0.0000 C   0  0  0  0  0  0  0  0  0  0  0  0
    2.4721   -1.4279    0.0000 C   0  0  0  0  0  0  0  0  0  0  0  0
    0.0000   -1.4279    0.0000 O   0  0  0  0  0  0  0  0  0  0  0  0
    0.0000    0.0000    0.0000 C   0  0  0  0  0  0  0  0  0  0  0  0
  1  2  2  0  0  0  0
  1  3  1  0  0  0  0
  2  4  1  0  0  0  0
  5  3  2  0  0  0  0
  3  6  1  0  0  0  0
  4  7  2  0  0  0  0
  7  5  1  0  0  0  0
  6  8  2  0  0  0  0
  6  9  1  0  0  0  0
M  END
>  <Name>
Ethanone, 1-phenyl-

>  <IGC50>
2.54

>  <CAS>
98-86-2

>  <SET>
ws

>  <Species>
Tetrahymena pyriformis

>  <Test duration>
48h

$$$$

  Mrv1808 07152009202D          

  7  6  0  0  0  0            999 V2000
    0.0000    1.5263    0.0000 Br  0  0  0  0  0  0  0  0  0  0  0  0
    0.4125    0.8250    0.0000 C   0  0  0  0  0  0  0  0  0  0  0  0
    1.2375    0.8250    0.0000 C   0  0  0  0  0  0  0  0  0  0  0  0
    1.2375    1.6088    0.0000 C   0  0  0  0  0  0  0  0  0  0  0  0
    1.2375    0.0000    0.0000 C   0  0  0  0  0  0  0  0  0  0  0  0
    2.0625    0.8250    0.0000 C   0  0  0  0  0  0  0  0  0  0  0  0
    2.4751    1.5263    0.0000 O   0  0  0  0  0  0  0  0  0  0  0  0
  1  2  1  0  0  0  0
  2  3  1  0  0  0  0
  3  4  1  0  0  0  0
  3  5  1  0  0  0  0
  3  6  1  0  0  0  0
  6  7  1  0  0  0  0
M  END
>  <Name>
3-Bromo-2,2-dimethyl-1-propanol

>  <IGC50>
2.54

>  <CAS>
40894-00-6

>  <SET>
ws

>  <Species>
Tetrahymena pyriformis

>  <Test duration>
48h

$$$$

  Mrv1808 07152009202D          

  8  8  0  0  0  0            999 V2000
    0.0000    1.1712    0.0000 C   0  0  0  0  0  0  0  0  0  0  0  0
    0.7529    1.5895    0.0000 C   0  0  0  0  0  0  0  0  0  0  0  0
    1.4640    1.1712    0.0000 C   0  0  0  0  0  0  0  0  0  0  0  0
    2.1751    1.5895    0.0000 C   0  0  0  0  0  0  0  0  0  0  0  0
    1.4640    0.4183    0.0000 C   0  0  0  0  0  0  0  0  0  0  0  0
    2.8862    1.1712    0.0000 C   0  0  0  0  0  0  0  0  0  0  0  0
    2.1751    0.0000    0.0000 C   0  0  0  0  0  0  0  0  0  0  0  0
    2.8862    0.4183    0.0000 N   0  0  0  0  0  0  0  0  0  0  0  0
  1  2  1  0  0  0  0
  2  3  1  0  0  0  0
  3  4  2  0  0  0  0
  5  3  1  0  0  0  0
  4  6  1  0  0  0  0
  7  5  2  0  0  0  0
  6  8  2  0  0  0  0
  8  7  1  0  0  0  0
M  END
>  <Name>
4-ethylpyridine

>  <IGC50>
2.54

>  <CAS>
536-75-4

>  <SET>
ws

>  <Species>
Tetrahymena pyriformis

>  <Test duration>
48h

$$$$

  Mrv1808 07152009202D          

  6  5  0  0  0  0            999 V2000
    0.7127   -0.7148    0.0000 C   0  0  0  0  0  0  0  0  0  0  0  0
    0.3017    0.0000    0.0000 Cl  0  0  0  0  0  0  0  0  0  0  0  0
    1.1256   -1.4274    0.0000 Cl  0  0  0  0  0  0  0  0  0  0  0  0
    0.0000   -1.1256    0.0000 Cl  0  0  0  0  0  0  0  0  0  0  0  0
    1.4274   -0.3017    0.0000 C   0  0  0  0  0  0  0  0  0  0  0  0
    2.1400   -0.7148    0.0000 O   0  0  0  0  0  0  0  0  0  0  0  0
  1  2  1  0  0  0  0
  1  3  1  0  0  0  0
  1  4  1  0  0  0  0
  1  5  1  0  0  0  0
  5  6  1  0  0  0  0
M  END
>  <Name>
Ethanol, 2,2,2-trichloro-

>  <IGC50>
2.535

>  <CAS>
115-20-8

>  <SET>
ws

>  <Species>
Tetrahymena pyriformis

>  <Test duration>
48h

$$$$

  Mrv1808 07152009202D          

  6  5  0  0  0  0            999 V2000
    0.0000    0.3860    0.0000 Br  0  0  0  0  0  0  0  0  0  0  0  0
    0.7290    0.7720    0.0000 C   0  0  0  0  0  0  0  0  0  0  0  0
    1.4582    0.3860    0.0000 C   0  0  0  0  0  0  0  0  0  0  0  0
    2.2302    0.7720    0.0000 C   0  0  0  0  0  0  0  0  0  0  0  0
    2.9592    0.3860    0.0000 C   0  0  0  0  0  0  0  0  0  0  0  0
    3.7312    0.0000    0.0000 N   0  0  0  0  0  0  0  0  0  0  0  0
  1  2  1  0  0  0  0
  2  3  1  0  0  0  0
  3  4  1  0  0  0  0
  4  5  1  0  0  0  0
  5  6  3  0  0  0  0
M  END
>  <Name>
Butanenitrile, 4-bromo-

>  <IGC50>
2.535

>  <CAS>
5332-06-9

>  <SET>
ws

>  <Species>
Tetrahymena pyriformis

>  <Test duration>
48h

$$$$

  Mrv1808 07152009202D          

 10 10  0  0  0  0            999 V2000
    0.0412    0.7012    0.0000 O   0  0  0  0  0  0  0  0  0  0  0  0
    0.4125    1.4438    0.0000 C   0  0  0  0  0  0  0  0  0  0  0  0
    0.0000    2.1451    0.0000 O   0  0  0  0  0  0  0  0  0  0  0  0
    1.2788    1.4438    0.0000 C   0  0  0  0  0  0  0  0  0  0  0  0
    1.6913    0.7012    0.0000 C   0  0  0  0  0  0  0  0  0  0  0  0
    1.6913    2.1451    0.0000 C   0  0  0  0  0  0  0  0  0  0  0  0
    1.2788    0.0000    0.0000 Br  0  0  0  0  0  0  0  0  0  0  0  0
    2.5163    0.7012    0.0000 C   0  0  0  0  0  0  0  0  0  0  0  0
    2.5163    2.1451    0.0000 C   0  0  0  0  0  0  0  0  0  0  0  0
    2.9288    1.4438    0.0000 C   0  0  0  0  0  0  0  0  0  0  0  0
  1  2  1  0  0  0  0
  2  3  2  0  0  0  0
  2  4  1  0  0  0  0
  4  5  2  0  0  0  0
  6  4  1  0  0  0  0
  5  7  1  0  0  0  0
  5  8  1  0  0  0  0
  9  6  2  0  0  0  0
  8 10  2  0  0  0  0
 10  9  1  0  0  0  0
M  END
>  <Name>
2-bromobenzoic acid

>  <IGC50>
2.53

>  <CAS>
88-65-3

>  <SET>
ws

>  <Species>
Tetrahymena pyriformis

>  <Test duration>
48h

$$$$

  Mrv1808 07152009203D          

  8  7  0  0  0  0            999 V2000
    3.3043    0.9653   -0.0607 C   0  0  0  0  0  0  0  0  0  0  0  0
    2.1663   -0.0238   -0.3139 C   0  0  2  0  0  0  0  0  0  0  0  0
    0.8411    0.5286    0.2289 C   0  0  0  0  0  0  0  0  0  0  0  0
    2.4009   -1.2611    0.3365 O   0  0  0  0  0  0  0  0  0  0  0  0
   -0.3605   -0.2252   -0.3174 C   0  0  0  0  0  0  0  0  0  0  0  0
   -1.6607    0.3552    0.2158 C   0  0  0  0  0  0  0  0  0  0  0  0
   -2.8664   -0.3907   -0.3332 C   0  0  0  0  0  0  0  0  0  0  0  0
   -4.1610    0.1823    0.1976 C   0  0  0  0  0  0  0  0  0  0  0  0
  1  2  1  0  0  0  0
  2  3  1  0  0  0  0
  2  4  1  0  0  0  0
  3  5  1  0  0  0  0
  5  6  1  0  0  0  0
  6  7  1  0  0  0  0
  7  8  1  0  0  0  0
M  END
>  <Name>
2-Heptanol

>  <IGC50>
2.53

>  <CAS>
543-49-7

>  <SET>
ws

>  <Species>
Tetrahymena pyriformis

>  <Test duration>
48h

$$$$

  Mrv1808 07152009202D          

  9  9  0  0  0  0            999 V2000
    0.0000   -1.4285    0.0000 C   0  0  0  0  0  0  0  0  0  0  0  0
    0.8257   -1.4285    0.0000 C   0  0  0  0  0  0  0  0  0  0  0  0
    1.2371   -0.7142    0.0000 C   0  0  0  0  0  0  0  0  0  0  0  0
    1.2371   -2.1428    0.0000 N   0  0  0  0  0  0  0  0  0  0  0  0
    2.0628   -0.7142    0.0000 C   0  0  0  0  0  0  0  0  0  0  0  0
    2.0628   -2.1428    0.0000 C   0  0  0  0  0  0  0  0  0  0  0  0
    2.4742    0.0000    0.0000 Cl  0  0  0  0  0  0  0  0  0  0  0  0
    2.4742   -1.4285    0.0000 N   0  0  0  0  0  0  0  0  0  0  0  0
    2.4742   -2.8570    0.0000 N   0  0  0  0  0  0  0  0  0  0  0  0
  1  2  1  0  0  0  0
  2  3  2  0  0  0  0
  2  4  1  0  0  0  0
  3  5  1  0  0  0  0
  6  4  2  0  0  0  0
  5  7  1  0  0  0  0
  5  8  2  0  0  0  0
  8  6  1  0  0  0  0
  6  9  1  0  0  0  0
M  END
>  <Name>
2-Pyrimidinamine, 4-chloro-6-methyl- (9CI)

>  <IGC50>
2.53

>  <CAS>
5600-21-5

>  <SET>
ws

>  <Species>
Tetrahymena pyriformis

>  <Test duration>
48h

$$$$

  Mrv1808 07152009202D          

  7  6  0  0  0  0            999 V2000
    1.6484    0.0000    0.0000 C   0  0  0  0  0  0  0  0  0  0  0  0
    1.2384   -0.7160    0.0000 C   0  0  0  0  0  0  0  0  0  0  0  0
    0.4128   -0.7160    0.0000 C   0  0  0  0  0  0  0  0  0  0  0  0
    1.6484   -1.4290    0.0000 C   0  0  0  0  0  0  0  0  0  0  0  0
    0.0000   -1.4290    0.0000 O   0  0  0  0  0  0  0  0  0  0  0  0
    2.4740   -1.4290    0.0000 C   0  0  0  0  0  0  0  0  0  0  0  0
    2.8868   -0.7160    0.0000 C   0  0  0  0  0  0  0  0  0  0  0  0
  1  2  1  0  0  0  0
  2  3  1  0  0  0  0
  2  4  1  0  0  0  0
  3  5  2  0  0  0  0
  4  6  1  0  0  0  0
  6  7  1  0  0  0  0
M  END
>  <Name>
Valeraldehyde, 2-methyl- (8CI)

>  <IGC50>
2.526

>  <CAS>
123-15-9

>  <SET>
ws

>  <Species>
Tetrahymena pyriformis

>  <Test duration>
48h

$$$$

  Mrv1808 07152009202D          

  6  5  0  0  0  0            999 V2000
    0.7426    0.0000    0.0000 C   0  0  0  0  0  0  0  0  0  0  0  0
    1.4439    0.4125    0.0000 C   0  0  0  0  0  0  0  0  0  0  0  0
    0.0000    0.4125    0.0000 C   0  0  0  0  0  0  0  0  0  0  0  0
    2.1451    0.0000    0.0000 C   0  0  0  0  0  0  0  0  0  0  0  0
    1.4439    1.2375    0.0000 C   0  0  0  0  0  0  0  0  0  0  0  0
    2.8876    0.4125    0.0000 N   0  0  0  0  0  0  0  0  0  0  0  0
  1  2  1  0  0  0  0
  1  3  1  0  0  0  0
  2  4  1  0  0  0  0
  2  5  1  0  0  0  0
  4  6  1  0  0  0  0
M  END
>  <Name>
1-Butanamine, 2-methyl-

>  <IGC50>
2.523

>  <CAS>
96-15-1

>  <SET>
ws

>  <Species>
Tetrahymena pyriformis

>  <Test duration>
48h

$$$$

  Mrv1808 07152009202D          

  7  7  0  0  0  0            999 V2000
    1.4522   -1.3363    0.0000 O   0  0  0  0  0  0  0  0  0  0  0  0
    0.6681   -1.0795    0.0000 C   0  0  0  0  0  0  0  0  0  0  0  0
    1.9353   -0.6681    0.0000 C   0  0  0  0  0  0  0  0  0  0  0  0
    0.0000   -1.5654    0.0000 C   0  0  0  0  0  0  0  0  0  0  0  0
    0.6681   -0.2567    0.0000 C   0  0  0  0  0  0  0  0  0  0  0  0
    1.4522    0.0000    0.0000 C   0  0  0  0  0  0  0  0  0  0  0  0
    2.7608   -0.6681    0.0000 C   0  0  0  0  0  0  0  0  0  0  0  0
  1  2  1  0  0  0  0
  1  3  1  0  0  0  0
  2  4  1  0  0  0  0
  2  5  2  0  0  0  0
  6  3  2  0  0  0  0
  3  7  1  0  0  0  0
  5  6  1  0  0  0  0
M  END
>  <Name>
Furan, 2,5-dimethyl-

>  <IGC50>
2.52

>  <CAS>
625-86-5

>  <SET>
ws

>  <Species>
Tetrahymena pyriformis

>  <Test duration>
48h

$$$$

  Mrv1808 07152009202D          

 11 11  0  0  0  0            999 V2000
    1.1963    0.7012    0.0000 C   0  0  0  0  0  0  0  0  0  0  0  0
    1.6501    1.4437    0.0000 C   0  0  0  0  0  0  0  0  0  0  0  0
    0.4125    0.7012    0.0000 N   0  0  0  0  0  0  0  0  0  0  0  0
    1.6088    0.0000    0.0000 O   0  0  0  0  0  0  0  0  0  0  0  0
    2.4751    1.4437    0.0000 C   0  0  0  0  0  0  0  0  0  0  0  0
    0.0000    0.0000    0.0000 N   0  0  0  0  0  0  0  0  0  0  0  0
    2.8876    2.1451    0.0000 C   0  0  0  0  0  0  0  0  0  0  0  0
    2.8876    0.7012    0.0000 C   0  0  0  0  0  0  0  0  0  0  0  0
    3.7126    2.1451    0.0000 C   0  0  0  0  0  0  0  0  0  0  0  0
    3.7126    0.7012    0.0000 C   0  0  0  0  0  0  0  0  0  0  0  0
    4.1251    1.4437    0.0000 C   0  0  0  0  0  0  0  0  0  0  0  0
  1  2  1  0  0  0  0
  1  3  1  0  0  0  0
  1  4  2  0  0  0  0
  2  5  1  0  0  0  0
  3  6  1  0  0  0  0
  7  5  2  0  0  0  0
  5  8  1  0  0  0  0
  9  7  1  0  0  0  0
  8 10  2  0  0  0  0
 11  9  2  0  0  0  0
 10 11  1  0  0  0  0
M  END
>  <Name>
Acetic acid, phenyl-, hydrazide (8CI)

>  <IGC50>
2.52

>  <CAS>
937-39-3

>  <SET>
ws

>  <Species>
Tetrahymena pyriformis

>  <Test duration>
48h

$$$$

  Mrv1808 07152009202D          

  7  7  0  0  0  0            999 V2000
    2.6538    0.5227    0.0000 O   0  0  0  0  0  0  0  0  0  0  0  0
    2.0506    1.0856    0.0000 C   0  0  0  0  0  0  0  0  0  0  0  0
    1.2866    0.6836    0.0000 C   0  0  0  0  0  0  0  0  0  0  0  0
    1.0856    0.0000    0.0000 C   0  0  0  0  0  0  0  0  0  0  0  0
    0.6032    1.2062    0.0000 N   0  0  0  0  0  0  0  0  0  0  0  0
    0.2412    0.0000    0.0000 C   0  0  0  0  0  0  0  0  0  0  0  0
    0.0000    0.6836    0.0000 C   0  0  0  0  0  0  0  0  0  0  0  0
  1  2  2  0  0  0  0
  2  3  1  0  0  0  0
  3  4  2  0  0  0  0
  5  3  1  0  0  0  0
  4  6  1  0  0  0  0
  7  5  1  0  0  0  0
  6  7  2  0  0  0  0
M  END
>  <Name>
1H-pyrrole-2-carbaldehyde

>  <IGC50>
2.52

>  <CAS>
1003-29-8

>  <SET>
ws

>  <Species>
Tetrahymena pyriformis

>  <Test duration>
48h

$$$$

  Mrv1808 07152009202D          

  9  8  0  0  0  0            999 V2000
    1.4825    0.8013    0.0000 C   0  0  0  0  0  0  0  0  0  0  0  0
    2.2036    1.2020    0.0000 C   0  0  0  0  0  0  0  0  0  0  0  0
    0.7212    0.4007    0.0000 C   0  0  0  0  0  0  0  0  0  0  0  0
    2.9249    0.8013    0.0000 C   0  0  0  0  0  0  0  0  0  0  0  0
    1.6427    1.5625    0.0000 C   0  0  0  0  0  0  0  0  0  0  0  0
    2.7245    1.5225    0.0000 O   0  0  0  0  0  0  0  0  0  0  0  0
    0.0000    0.0000    0.0000 C   0  0  0  0  0  0  0  0  0  0  0  0
    3.6460    1.2020    0.0000 C   0  0  0  0  0  0  0  0  0  0  0  0
    4.4073    0.8013    0.0000 C   0  0  0  0  0  0  0  0  0  0  0  0
  1  2  1  0  0  0  0
  1  3  3  0  0  0  0
  2  4  1  0  0  0  0
  2  5  1  0  0  0  0
  2  6  1  0  0  0  0
  3  7  1  0  0  0  0
  4  8  1  0  0  0  0
  8  9  1  0  0  0  0
M  END
>  <Name>
4-methyl-2-heptyn-4-ol

>  <IGC50>
2.52

>  <CAS>
4376-16-3

>  <SET>
ws

>  <Species>
Tetrahymena pyriformis

>  <Test duration>
48h

$$$$

  Mrv1808 07152009202D          

  8  8  0  0  0  0            999 V2000
    1.4298   -1.6500    0.0000 N   0  0  0  0  0  0  0  0  0  0  0  0
    0.7149   -1.2382    0.0000 C   0  0  0  0  0  0  0  0  0  0  0  0
    2.1447   -1.2382    0.0000 C   0  0  0  0  0  0  0  0  0  0  0  0
    0.0000   -1.6500    0.0000 C   0  0  0  0  0  0  0  0  0  0  0  0
    0.7149   -0.4118    0.0000 C   0  0  0  0  0  0  0  0  0  0  0  0
    2.1447   -0.4118    0.0000 C   0  0  0  0  0  0  0  0  0  0  0  0
    2.8596   -1.6500    0.0000 Cl  0  0  0  0  0  0  0  0  0  0  0  0
    1.4298    0.0000    0.0000 C   0  0  0  0  0  0  0  0  0  0  0  0
  1  2  2  0  0  0  0
  1  3  1  0  0  0  0
  2  4  1  0  0  0  0
  2  5  1  0  0  0  0
  6  3  2  0  0  0  0
  3  7  1  0  0  0  0
  5  8  2  0  0  0  0
  8  6  1  0  0  0  0
M  END
>  <Name>
6-Chloro-2-methylpyridine

>  <IGC50>
2.52

>  <CAS>
18368-63-3

>  <SET>
ws

>  <Species>
Tetrahymena pyriformis

>  <Test duration>
48h

$$$$

  Mrv1808 07152009202D          

  9  8  0  0  0  0            999 V2000
    2.8519    1.2222    0.0000 O   0  0  0  0  0  0  0  0  0  0  0  0
    2.1186    0.8148    0.0000 C   0  0  0  0  0  0  0  0  0  0  0  0
    3.5445    0.8148    0.0000 C   0  0  0  0  0  0  0  0  0  0  0  0
    1.4260    1.2222    0.0000 C   0  0  0  0  0  0  0  0  0  0  0  0
    2.1186    0.0000    0.0000 O   0  0  0  0  0  0  0  0  0  0  0  0
    4.2372    1.2630    0.0000 C   0  0  0  0  0  0  0  0  0  0  0  0
    0.7333    0.8148    0.0000 C   0  0  0  0  0  0  0  0  0  0  0  0
    4.9705    0.8555    0.0000 C   0  0  0  0  0  0  0  0  0  0  0  0
    0.0000    1.2222    0.0000 C   0  0  0  0  0  0  0  0  0  0  0  0
  1  2  1  0  0  0  0
  1  3  1  0  0  0  0
  2  4  1  0  0  0  0
  2  5  2  0  0  0  0
  3  6  1  0  0  0  0
  4  7  2  0  0  0  0
  6  8  2  0  0  0  0
  7  9  1  0  0  0  0
M  END
>  <Name>
 Crotonic acid, allyl ester (6CI,7CI,8CI)

>  <IGC50>
2.519

>  <CAS>
20474-93-5

>  <SET>
ws

>  <Species>
Tetrahymena pyriformis

>  <Test duration>
48h

$$$$

  Mrv1808 07152009202D          

  6  5  0  0  0  0            999 V2000
    0.0000   -0.4113    0.0000 C   0  0  0  0  0  0  0  0  0  0  0  0
    0.7152    0.0000    0.0000 C   0  0  0  0  0  0  0  0  0  0  0  0
    1.4304   -0.4113    0.0000 C   0  0  0  0  0  0  0  0  0  0  0  0
    2.1456    0.0000    0.0000 C   0  0  0  0  0  0  0  0  0  0  0  0
    2.8607   -0.4113    0.0000 C   0  0  0  0  0  0  0  0  0  0  0  0
    3.5759    0.0000    0.0000 N   0  0  0  0  0  0  0  0  0  0  0  0
  1  2  1  0  0  0  0
  2  3  1  0  0  0  0
  3  4  1  0  0  0  0
  4  5  1  0  0  0  0
  5  6  1  0  0  0  0
M  END
>  <Name>
1-Pentanamine

>  <IGC50>
2.515

>  <CAS>
110-58-7

>  <SET>
ws

>  <Species>
Tetrahymena pyriformis

>  <Test duration>
48h

$$$$

  Mrv1808 07152009202D          

  4  3  0  0  0  0            999 V2000
    0.0000    0.0000    0.0000 C   0  0  0  0  0  0  0  0  0  0  0  0
    0.7147   -0.4121    0.0000 C   0  0  0  0  0  0  0  0  0  0  0  0
    1.4315    0.0000    0.0000 C   0  0  0  0  0  0  0  0  0  0  0  0
    2.1462   -0.4121    0.0000 O   0  0  0  0  0  0  0  0  0  0  0  0
  1  2  1  0  0  0  0
  2  3  1  0  0  0  0
  3  4  2  0  0  0  0
M  END
>  <Name>
Propionaldehyde

>  <IGC50>
2.515

>  <CAS>
123-38-6

>  <SET>
ws

>  <Species>
Tetrahymena pyriformis

>  <Test duration>
48h

$$$$

  Mrv1808 07152009202D          

  6  5  0  0  0  0            999 V2000
    2.0625    0.0000    0.0000 Br  0  0  0  0  0  0  0  0  0  0  0  0
    1.2375    0.0000    0.0000 C   0  0  0  0  0  0  0  0  0  0  0  0
    0.8250   -0.7157    0.0000 C   0  0  0  0  0  0  0  0  0  0  0  0
    0.0000   -0.7157    0.0000 Br  0  0  0  0  0  0  0  0  0  0  0  0
    1.2375   -1.4293    0.0000 C   0  0  0  0  0  0  0  0  0  0  0  0
    2.0625   -1.4293    0.0000 O   0  0  0  0  0  0  0  0  0  0  0  0
  1  2  1  0  0  0  0
  2  3  1  0  0  0  0
  3  4  1  0  0  0  0
  3  5  1  0  0  0  0
  5  6  1  0  0  0  0
M  END
>  <Name>
1-Propanol, 2,3-dibromo-

>  <IGC50>
2.514

>  <CAS>
96-13-9

>  <SET>
ws

>  <Species>
Tetrahymena pyriformis

>  <Test duration>
48h

$$$$

  Mrv1808 07152009202D          

  8  7  0  0  0  0            999 V2000
    0.0000   -1.2378    0.0000 C   0  0  0  0  0  0  0  0  0  0  0  0
    0.7152   -0.8266    0.0000 C   0  0  0  0  0  0  0  0  0  0  0  0
    1.4262   -1.2378    0.0000 C   0  0  0  0  0  0  0  0  0  0  0  0
    2.1415   -0.8266    0.0000 C   0  0  0  0  0  0  0  0  0  0  0  0
    2.8568   -1.2378    0.0000 C   0  0  0  0  0  0  0  0  0  0  0  0
    3.5677   -0.8266    0.0000 C   0  0  0  0  0  0  0  0  0  0  0  0
    3.5677    0.0000    0.0000 O   0  0  0  0  0  0  0  0  0  0  0  0
    4.2830   -1.2378    0.0000 C   0  0  0  0  0  0  0  0  0  0  0  0
  1  2  1  0  0  0  0
  2  3  1  0  0  0  0
  3  4  1  0  0  0  0
  4  5  1  0  0  0  0
  5  6  1  0  0  0  0
  6  7  2  0  0  0  0
  6  8  1  0  0  0  0
M  END
>  <Name>
2-Heptanone

>  <IGC50>
2.513

>  <CAS>
110-43-0

>  <SET>
ws

>  <Species>
Tetrahymena pyriformis

>  <Test duration>
48h

$$$$

  Mrv1808 07152009202D          

  7  6  0  0  0  0            999 V2000
    0.7124   -0.4161    0.0000 C   0  0  0  0  0  0  0  0  0  0  0  0
    0.7124   -1.2368    0.0000 O   0  0  0  0  0  0  0  0  0  0  0  0
    1.4248    0.0000    0.0000 O   0  0  0  0  0  0  0  0  0  0  0  0
    0.0000    0.0000    0.0000 C   0  0  0  0  0  0  0  0  0  0  0  0
    2.1372   -0.4161    0.0000 C   0  0  0  0  0  0  0  0  0  0  0  0
    2.1372   -1.2368    0.0000 C   0  0  0  0  0  0  0  0  0  0  0  0
    2.8496    0.0000    0.0000 C   0  0  0  0  0  0  0  0  0  0  0  0
  1  2  2  0  0  0  0
  1  3  1  0  0  0  0
  1  4  1  0  0  0  0
  3  5  1  0  0  0  0
  5  6  2  0  0  0  0
  5  7  1  0  0  0  0
M  END
>  <Name>
1-Propen-2-ol, acetate

>  <IGC50>
2.511

>  <CAS>
108-22-5

>  <SET>
ws

>  <Species>
Tetrahymena pyriformis

>  <Test duration>
48h

$$$$

  Mrv1808 07152009203D          

  8  7  0  0  0  0            999 V2000
    3.5691    0.2609    0.4098 C   0  0  0  0  0  0  0  0  0  0  0  0
    2.2816    0.7905   -0.1815 C   0  0  0  0  0  0  0  0  0  0  0  0
    1.0820   -0.1017    0.1874 C   0  0  1  0  0  0  0  0  0  0  0  0
   -0.2185    0.4921   -0.3711 C   0  0  0  0  0  0  0  0  0  0  0  0
    1.2129   -1.4103   -0.3414 O   0  0  0  0  0  0  0  0  0  0  0  0
   -1.4508   -0.1430    0.2524 C   0  0  0  0  0  0  0  0  0  0  0  0
   -2.7263    0.4826   -0.2901 C   0  0  0  0  0  0  0  0  0  0  0  0
   -3.9555   -0.1449    0.3274 C   0  0  0  0  0  0  0  0  0  0  0  0
  1  2  1  0  0  0  0
  2  3  1  0  0  0  0
  3  4  1  0  0  0  0
  3  5  1  0  0  0  0
  4  6  1  0  0  0  0
  6  7  1  0  0  0  0
  7  8  1  0  0  0  0
M  END
>  <Name>
3-Heptanol

>  <IGC50>
2.51

>  <CAS>
589-82-2

>  <SET>
ws

>  <Species>
Tetrahymena pyriformis

>  <Test duration>
48h

$$$$

  Mrv1808 07152009203D          

  8  7  0  0  0  0            999 V2000
   -0.0264    0.3284   -0.0002 C   0  0  0  0  0  0  0  0  0  0  0  0
    1.2066   -0.5452   -0.0003 C   0  0  0  0  0  0  0  0  0  0  0  0
   -0.1035    1.5411   -0.0004 O   0  0  0  0  0  0  0  0  0  0  0  0
   -1.1757   -0.4100    0.0002 O   0  0  0  0  0  0  0  0  0  0  0  0
    2.4951    0.2611    0.0008 C   0  0  0  0  0  0  0  0  0  0  0  0
   -2.4286    0.2763    0.0004 C   0  0  0  0  0  0  0  0  0  0  0  0
    3.7026   -0.6494   -0.0002 C   0  0  0  0  0  0  0  0  0  0  0  0
   -3.5046   -0.7925   -0.0001 C   0  0  0  0  0  0  0  0  0  0  0  0
  1  2  1  0  0  0  0
  1  3  2  0  0  0  0
  1  4  1  0  0  0  0
  2  5  1  0  0  0  0
  4  6  1  0  0  0  0
  5  7  1  0  0  0  0
  6  8  1  0  0  0  0
M  END
>  <Name>
Butanoic acid, ethyl ester

>  <IGC50>
2.51

>  <CAS>
105-54-4

>  <SET>
ws

>  <Species>
Tetrahymena pyriformis

>  <Test duration>
48h

$$$$

  Mrv1808 07152009203D          

  6  5  0  0  0  0            999 V2000
    2.2701   -0.9296    0.5512 Cl  0  0  0  0  0  0  0  0  0  0  0  0
    1.4228   -0.1305   -0.7930 C   0  0  0  0  0  0  0  0  0  0  0  0
    0.6415    1.0989   -0.3314 C   0  0  0  0  0  0  0  0  0  0  0  0
   -0.4650    0.8208    0.6902 C   0  0  0  0  0  0  0  0  0  0  0  0
   -1.5075   -0.0673    0.1570 C   0  0  0  0  0  0  0  0  0  0  0  0
   -2.3620   -0.7922   -0.2740 C   0  0  0  0  0  0  0  0  0  0  0  0
  1  2  1  0  0  0  0
  3  2  1  0  0  0  0
  3  4  1  0  0  0  0
  4  5  1  0  0  0  0
  5  6  3  0  0  0  0
M  END
>  <Name>
1-Pentyne, 5-chloro-

>  <IGC50>
2.51

>  <CAS>
14267-92-6

>  <SET>
ws

>  <Species>
Tetrahymena pyriformis

>  <Test duration>
48h

$$$$

  Mrv1808 07152009202D          

  9  8  0  0  0  0            999 V2000
    2.8465    1.1964    0.0000 O   0  0  0  0  0  0  0  0  0  0  0  0
    2.1452    0.8251    0.0000 C   0  0  0  0  0  0  0  0  0  0  0  0
    3.5477    0.8251    0.0000 C   0  0  0  0  0  0  0  0  0  0  0  0
    2.1452    0.0000    0.0000 O   0  0  0  0  0  0  0  0  0  0  0  0
    1.4439    1.1964    0.0000 C   0  0  0  0  0  0  0  0  0  0  0  0
    4.2490    1.2789    0.0000 C   0  0  0  0  0  0  0  0  0  0  0  0
    0.7013    0.8251    0.0000 C   0  0  0  0  0  0  0  0  0  0  0  0
    1.4439    2.0214    0.0000 C   0  0  0  0  0  0  0  0  0  0  0  0
    0.0000    1.1964    0.0000 C   0  0  0  0  0  0  0  0  0  0  0  0
  1  2  1  0  0  0  0
  1  3  1  0  0  0  0
  2  4  2  0  0  0  0
  2  5  1  0  0  0  0
  3  6  1  0  0  0  0
  5  7  2  0  0  0  0
  5  8  1  0  0  0  0
  7  9  1  0  0  0  0
M  END
>  <Name>
Crotonic acid, 2-methyl-, ethyl ester, (E)- (8CI)

>  <IGC50>
2.504

>  <CAS>
5837-78-5

>  <SET>
ws

>  <Species>
Tetrahymena pyriformis

>  <Test duration>
48h

$$$$

  Mrv1808 07152009202D          

  8  7  0  0  0  0            999 V2000
    0.0000    1.2130    0.0000 Cl  0  0  0  0  0  0  0  0  0  0  0  0
    0.7111    0.7947    0.0000 C   0  0  0  0  0  0  0  0  0  0  0  0
    1.4222    1.2130    0.0000 C   0  0  0  0  0  0  0  0  0  0  0  0
    2.1332    0.7947    0.0000 C   0  0  0  0  0  0  0  0  0  0  0  0
    2.8443    1.2130    0.0000 O   0  0  0  0  0  0  0  0  0  0  0  0
    2.1332    0.0000    0.0000 O   0  0  0  0  0  0  0  0  0  0  0  0
    3.5554    0.7947    0.0000 C   0  0  0  0  0  0  0  0  0  0  0  0
    4.3083    1.2130    0.0000 C   0  0  0  0  0  0  0  0  0  0  0  0
  1  2  1  0  0  0  0
  2  3  1  0  0  0  0
  3  4  1  0  0  0  0
  4  5  1  0  0  0  0
  4  6  2  0  0  0  0
  5  7  1  0  0  0  0
  7  8  1  0  0  0  0
M  END
>  <Name>
Propionic acid, 3-chloro-, ethyl ester (8CI)

>  <IGC50>
2.502

>  <CAS>
623-71-2

>  <SET>
ws

>  <Species>
Tetrahymena pyriformis

>  <Test duration>
48h

$$$$

  Mrv1808 07152009203D          

  8  8  0  0  0  0            999 V2000
    0.7071    1.3509   -0.0001 C   0  0  0  0  0  0  0  0  0  0  0  0
   -0.5319    0.6975    0.0004 C   0  0  0  0  0  0  0  0  0  0  0  0
    1.8752    0.6733   -0.0003 N   0  0  0  0  0  0  0  0  0  0  0  0
   -0.5508   -0.7052    0.0003 C   0  0  0  0  0  0  0  0  0  0  0  0
   -1.7845    1.4921    0.0001 C   0  0  0  0  0  0  0  0  0  0  0  0
    1.8606   -0.6796    0.0000 C   0  0  0  0  0  0  0  0  0  0  0  0
    0.6646   -1.3937    0.0003 C   0  0  0  0  0  0  0  0  0  0  0  0
   -1.8304   -1.4573   -0.0004 C   0  0  0  0  0  0  0  0  0  0  0  0
  1  2  1  0  0  0  0
  1  3  2  0  0  0  0
  2  4  2  0  0  0  0
  2  5  1  0  0  0  0
  6  3  1  0  0  0  0
  4  7  1  0  0  0  0
  4  8  1  0  0  0  0
  7  6  2  0  0  0  0
M  END
>  <Name>
Pyridine, 3,4-dimethyl-

>  <IGC50>
2.5

>  <CAS>
583-58-4

>  <SET>
ws

>  <Species>
Tetrahymena pyriformis

>  <Test duration>
48h

$$$$

  Mrv1808 07152009203D          

  5  4  0  0  0  0            999 V2000
   -2.8412    0.0694    0.0299 Br  0  0  0  0  0  0  0  0  0  0  0  0
   -0.9999   -0.5720   -0.0290 C   0  0  0  0  0  0  0  0  0  0  0  0
   -0.0201    0.5887   -0.0240 C   0  0  0  0  0  0  0  0  0  0  0  0
    1.3784    0.1348    0.0017 C   0  0  0  0  0  0  0  0  0  0  0  0
    2.4827   -0.2210    0.0214 N   0  0  0  0  0  0  0  0  0  0  0  0
  1  2  1  0  0  0  0
  3  2  1  0  0  0  0
  3  4  1  0  0  0  0
  5  4  3  0  0  0  0
M  END
>  <Name>
3-bromopropanenitrile

>  <IGC50>
2.5

>  <CAS>
2417-90-5

>  <SET>
ws

>  <Species>
Tetrahymena pyriformis

>  <Test duration>
48h

$$$$

  Mrv1808 07152009203D          

 12 12  0  0  0  0            999 V2000
   -4.2576    0.7473    1.1655 C   0  0  0  0  0  0  0  0  0  0  0  0
   -3.3991    0.0633    0.1330 C   0  0  0  0  0  0  0  0  0  0  0  0
   -1.9101    0.1883    0.3690 C   0  0  0  0  0  0  0  0  0  0  0  0
   -3.8836   -0.5378   -0.8063 O   0  0  0  0  0  0  0  0  0  0  0  0
   -1.0493   -0.4252   -0.7246 C   0  0  0  0  0  0  0  0  0  0  0  0
    0.4014   -0.2459   -0.4124 C   0  0  0  0  0  0  0  0  0  0  0  0
    1.0411    0.9555   -0.7291 C   0  0  0  0  0  0  0  0  0  0  0  0
    1.1240   -1.2738    0.1925 C   0  0  0  0  0  0  0  0  0  0  0  0
    2.3868    1.1377   -0.4467 C   0  0  0  0  0  0  0  0  0  0  0  0
    2.4729   -1.1130    0.4839 C   0  0  0  0  0  0  0  0  0  0  0  0
    3.1017    0.0965    0.1624 C   0  0  0  0  0  0  0  0  0  0  0  0
    4.4242    0.3405    0.4144 O   0  0  0  0  0  0  0  0  0  0  0  0
  1  2  1  0  0  0  0
  2  3  1  0  0  0  0
  2  4  2  0  0  0  0
  3  5  1  0  0  0  0
  5  6  1  0  0  0  0
  6  7  1  0  0  0  0
  6  8  2  0  0  0  0
  7  9  2  0  0  0  0
 10  8  1  0  0  0  0
  9 11  1  0  0  0  0
 11 10  2  0  0  0  0
 11 12  1  0  0  0  0
M  END
>  <Name>
2-Butanone, 4-(4-hydroxyphenyl)-

>  <IGC50>
2.5

>  <CAS>
5471-51-2

>  <SET>
ws

>  <Species>
Tetrahymena pyriformis

>  <Test duration>
48h

$$$$

  Mrv1808 07152009202D          

 11 11  0  0  0  0            999 V2000
    1.3612    0.4125    0.0000 C   0  0  0  0  0  0  0  0  0  0  0  0
    1.3612    1.2787    0.0000 C   0  0  0  0  0  0  0  0  0  0  0  0
    0.7013    0.0000    0.0000 N   0  0  0  0  0  0  0  0  0  0  0  0
    2.1037    0.0000    0.0000 O   0  0  0  0  0  0  0  0  0  0  0  0
    0.7013    1.6088    0.0000 C   0  0  0  0  0  0  0  0  0  0  0  0
    2.0625    1.6500    0.0000 N   0  0  0  0  0  0  0  0  0  0  0  0
    0.0000    0.4125    0.0000 C   0  0  0  0  0  0  0  0  0  0  0  0
    0.0000    1.2787    0.0000 C   0  0  0  0  0  0  0  0  0  0  0  0
    0.7013    2.4338    0.0000 C   0  0  0  0  0  0  0  0  0  0  0  0
    2.8050    1.2787    0.0000 O   0  0  0  0  0  0  0  0  0  0  0  0
    2.0625    2.4750    0.0000 O   0  0  0  0  0  0  0  0  0  0  0  0
  2  1  2  0  0  0  0
  1  3  1  0  0  0  0
  1  4  1  0  0  0  0
  5  2  1  0  0  0  0
  2  6  1  0  0  0  0
  3  7  2  0  0  0  0
  8  5  2  0  0  0  0
  5  9  1  0  0  0  0
  6 10  2  0  0  0  0
  6 11  2  0  0  0  0
  7  8  1  0  0  0  0
M  END
>  <Name>
2-Pyridinol,4-methyl-3-nitro- (8CI)

>  <IGC50>
2.5

>  <CAS>
21901-18-8

>  <SET>
ws

>  <Species>
Tetrahymena pyriformis

>  <Test duration>
48h

$$$$

  Mrv1808 07152009202D          

 10 10  0  0  0  0            999 V2000
    1.4359   -1.2578    0.0000 C   0  0  0  0  0  0  0  0  0  0  0  0
    2.1595   -0.8414    0.0000 C   0  0  0  0  0  0  0  0  0  0  0  0
    1.4359   -2.0791    0.0000 C   0  0  0  0  0  0  0  0  0  0  0  0
    0.7237   -0.8414    0.0000 C   0  0  0  0  0  0  0  0  0  0  0  0
    2.1595    0.0000    0.0000 O   0  0  0  0  0  0  0  0  0  0  0  0
    2.8717   -1.2578    0.0000 O   0  0  0  0  0  0  0  0  0  0  0  0
    2.1595   -2.5156    0.0000 O   0  0  0  0  0  0  0  0  0  0  0  0
    0.7237   -2.4955    0.0000 C   0  0  0  0  0  0  0  0  0  0  0  0
    0.0000   -1.2578    0.0000 C   0  0  0  0  0  0  0  0  0  0  0  0
    0.0000   -2.0791    0.0000 C   0  0  0  0  0  0  0  0  0  0  0  0
  1  2  1  0  0  0  0
  1  3  2  0  0  0  0
  1  4  1  0  0  0  0
  2  5  2  0  0  0  0
  2  6  1  0  0  0  0
  3  7  1  0  0  0  0
  3  8  1  0  0  0  0
  4  9  2  0  0  0  0
  8 10  2  0  0  0  0
  9 10  1  0  0  0  0
M  END
>  <Name>
Benzoic acid, 2-hydroxy-

>  <IGC50>
2.49

>  <CAS>
69-72-7

>  <SET>
ws

>  <Species>
Tetrahymena pyriformis

>  <Test duration>
48h

$$$$

  Mrv1808 07152009202D          

  9  9  0  0  0  0            999 V2000
    2.4740   -0.7130    0.0000 C   0  0  0  0  0  0  0  0  0  0  0  0
    2.8868   -1.4290    0.0000 C   0  0  0  0  0  0  0  0  0  0  0  0
    1.6484   -0.7130    0.0000 C   0  0  0  0  0  0  0  0  0  0  0  0
    2.4740   -2.1420    0.0000 C   0  0  0  0  0  0  0  0  0  0  0  0
    1.2385   -1.4290    0.0000 C   0  0  0  0  0  0  0  0  0  0  0  0
    1.2385    0.0000    0.0000 O   0  0  0  0  0  0  0  0  0  0  0  0
    1.6484   -2.1420    0.0000 C   0  0  0  0  0  0  0  0  0  0  0  0
    0.4128   -1.4290    0.0000 O   0  0  0  0  0  0  0  0  0  0  0  0
    0.0000   -2.1420    0.0000 C   0  0  0  0  0  0  0  0  0  0  0  0
  1  2  2  0  0  0  0
  1  3  1  0  0  0  0
  2  4  1  0  0  0  0
  5  3  2  0  0  0  0
  3  6  1  0  0  0  0
  4  7  2  0  0  0  0
  7  5  1  0  0  0  0
  5  8  1  0  0  0  0
  8  9  1  0  0  0  0
M  END
>  <Name>
Phenol, 2-methoxy-

>  <IGC50>
2.49

>  <CAS>
90-05-1

>  <SET>
ws

>  <Species>
Tetrahymena pyriformis

>  <Test duration>
48h

$$$$

  Mrv1808 07152009202D          

 12 11  0  0  0  0            999 V2000
    1.4222    0.7948    0.0000 O   0  0  0  0  0  0  0  0  0  0  0  0
    2.1752    1.2131    0.0000 C   0  0  0  0  0  0  0  0  0  0  0  0
    0.7111    1.2131    0.0000 C   0  0  0  0  0  0  0  0  0  0  0  0
    2.1752    2.0497    0.0000 O   0  0  0  0  0  0  0  0  0  0  0  0
    2.8863    0.7948    0.0000 C   0  0  0  0  0  0  0  0  0  0  0  0
    0.0000    0.7948    0.0000 C   0  0  0  0  0  0  0  0  0  0  0  0
    3.5557    1.2131    0.0000 C   0  0  0  0  0  0  0  0  0  0  0  0
    2.8863    0.0000    0.0000 C   0  0  0  0  0  0  0  0  0  0  0  0
    4.3086    0.7948    0.0000 O   0  0  0  0  0  0  0  0  0  0  0  0
    3.5557    2.0497    0.0000 O   0  0  0  0  0  0  0  0  0  0  0  0
    5.0197    1.2131    0.0000 C   0  0  0  0  0  0  0  0  0  0  0  0
    5.7309    0.7948    0.0000 C   0  0  0  0  0  0  0  0  0  0  0  0
  1  2  1  0  0  0  0
  1  3  1  0  0  0  0
  2  4  2  0  0  0  0
  2  5  1  0  0  0  0
  3  6  1  0  0  0  0
  5  7  1  0  0  0  0
  5  8  1  0  0  0  0
  7  9  1  0  0  0  0
  7 10  2  0  0  0  0
  9 11  1  0  0  0  0
 11 12  1  0  0  0  0
M  END
>  <Name>
Malonic acid, methyl-, diethyl ester (8CI)

>  <IGC50>
2.489

>  <CAS>
609-08-5

>  <SET>
ws

>  <Species>
Tetrahymena pyriformis

>  <Test duration>
48h

$$$$

  Mrv1808 07152009202D          

  5  4  0  0  0  0            999 V2000
    1.4304    0.0000    0.0000 O   0  0  0  0  0  0  0  0  0  0  0  0
    1.4304   -0.8256    0.0000 C   0  0  0  0  0  0  0  0  0  0  0  0
    2.1446   -1.2374    0.0000 O   0  0  0  0  0  0  0  0  0  0  0  0
    0.7142   -1.2374    0.0000 C   0  0  0  0  0  0  0  0  0  0  0  0
    0.0000   -0.8256    0.0000 C   0  0  0  0  0  0  0  0  0  0  0  0
  1  2  2  0  0  0  0
  2  3  1  0  0  0  0
  2  4  1  0  0  0  0
  4  5  1  0  0  0  0
M  END
>  <Name>
Propanoic acid

>  <IGC50>
2.488

>  <CAS>
79-09-4

>  <SET>
ws

>  <Species>
Tetrahymena pyriformis

>  <Test duration>
48h

$$$$

  Mrv1808 07152009202D          

 12 11  0  0  0  0            999 V2000
    5.7193    0.0000    0.0000 O   0  0  0  0  0  0  0  0  0  0  0  0
    5.0044   -0.4175    0.0000 C   0  0  0  0  0  0  0  0  0  0  0  0
    5.0044   -1.2411    0.0000 C   0  0  0  0  0  0  0  0  0  0  0  0
    4.2895    0.0000    0.0000 O   0  0  0  0  0  0  0  0  0  0  0  0
    4.2895   -1.6529    0.0000 C   0  0  0  0  0  0  0  0  0  0  0  0
    3.5745   -1.2411    0.0000 C   0  0  0  0  0  0  0  0  0  0  0  0
    2.8596   -1.6529    0.0000 C   0  0  0  0  0  0  0  0  0  0  0  0
    2.1447   -1.2411    0.0000 C   0  0  0  0  0  0  0  0  0  0  0  0
    1.4298   -1.6529    0.0000 C   0  0  0  0  0  0  0  0  0  0  0  0
    0.7149   -1.2411    0.0000 C   0  0  0  0  0  0  0  0  0  0  0  0
    0.0000   -1.6529    0.0000 O   0  0  0  0  0  0  0  0  0  0  0  0
    0.7149   -0.4175    0.0000 O   0  0  0  0  0  0  0  0  0  0  0  0
  1  2  1  0  0  0  0
  2  3  1  0  0  0  0
  2  4  2  0  0  0  0
  3  5  1  0  0  0  0
  5  6  1  0  0  0  0
  6  7  1  0  0  0  0
  7  8  1  0  0  0  0
  8  9  1  0  0  0  0
  9 10  1  0  0  0  0
 10 11  1  0  0  0  0
 10 12  2  0  0  0  0
M  END
>  <Name>
Octanedioic acid

>  <IGC50>
2.488

>  <CAS>
505-48-6

>  <SET>
ws

>  <Species>
Tetrahymena pyriformis

>  <Test duration>
48h

$$$$

  Mrv1808 07152009202D          

 19 19  0  0  0  0            999 V2000
    2.8641   -1.2439    0.0000 C   0  0  0  0  0  0  0  0  0  0  0  0
    2.8641   -0.4063    0.0000 O   0  0  0  0  0  0  0  0  0  0  0  0
    3.5813   -1.6503    0.0000 C   0  0  0  0  0  0  0  0  0  0  0  0
    2.1519   -1.6503    0.0000 C   0  0  0  0  0  0  0  0  0  0  0  0
    3.5813   -2.4779    0.0000 C   0  0  0  0  0  0  0  0  0  0  0  0
    4.2986   -1.2439    0.0000 C   0  0  0  0  0  0  0  0  0  0  0  0
    2.1519   -2.4779    0.0000 C   0  0  0  0  0  0  0  0  0  0  0  0
    1.4346   -1.2439    0.0000 C   0  0  0  0  0  0  0  0  0  0  0  0
    2.8641   -2.8942    0.0000 C   0  0  0  0  0  0  0  0  0  0  0  0
    4.2986   -0.4063    0.0000 N   0  0  0  0  0  0  0  0  0  0  0  0
    0.7173   -1.6503    0.0000 N   0  0  0  0  0  0  0  0  0  0  0  0
    2.8641   -3.7218    0.0000 C   0  0  0  0  0  0  0  0  0  0  0  0
    5.0159    0.0000    0.0000 C   0  0  0  0  0  0  0  0  0  0  0  0
    3.5813    0.0000    0.0000 C   0  0  0  0  0  0  0  0  0  0  0  0
    0.0000   -1.2439    0.0000 C   0  0  0  0  0  0  0  0  0  0  0  0
    0.7173   -2.4779    0.0000 C   0  0  0  0  0  0  0  0  0  0  0  0
    3.5813   -4.1281    0.0000 N   0  0  0  0  0  0  0  0  0  0  0  0
    3.5813   -4.9557    0.0000 C   0  0  0  0  0  0  0  0  0  0  0  0
    4.2986   -3.7218    0.0000 C   0  0  0  0  0  0  0  0  0  0  0  0
  1  2  1  0  0  0  0
  1  3  2  0  0  0  0
  1  4  1  0  0  0  0
  3  5  1  0  0  0  0
  3  6  1  0  0  0  0
  4  7  2  0  0  0  0
  4  8  1  0  0  0  0
  5  9  2  0  0  0  0
  6 10  1  0  0  0  0
  7  9  1  0  0  0  0
  8 11  1  0  0  0  0
  9 12  1  0  0  0  0
 10 13  1  0  0  0  0
 10 14  1  0  0  0  0
 11 15  1  0  0  0  0
 11 16  1  0  0  0  0
 12 17  1  0  0  0  0
 17 18  1  0  0  0  0
 17 19  1  0  0  0  0
M  END
>  <Name>
Mesitol, alpha,alpha',alpha''-tris(dimethylamino)- (7CI,8CI)

>  <IGC50>
2.48

>  <CAS>
90-72-2

>  <SET>
ws

>  <Species>
Tetrahymena pyriformis

>  <Test duration>
48h

$$$$

  Mrv1808 07152009202D          

  8  8  0  0  0  0            999 V2000
    0.0000   -1.6500    0.0000 O   0  0  0  0  0  0  0  0  0  0  0  0
    0.7149   -1.2382    0.0000 C   0  0  0  0  0  0  0  0  0  0  0  0
    0.7149   -0.4118    0.0000 C   0  0  0  0  0  0  0  0  0  0  0  0
    1.4298   -1.6500    0.0000 C   0  0  0  0  0  0  0  0  0  0  0  0
    1.4298    0.0000    0.0000 C   0  0  0  0  0  0  0  0  0  0  0  0
    2.1447   -1.2382    0.0000 C   0  0  0  0  0  0  0  0  0  0  0  0
    2.1447   -0.4118    0.0000 C   0  0  0  0  0  0  0  0  0  0  0  0
    2.8596   -1.6500    0.0000 N   0  0  0  0  0  0  0  0  0  0  0  0
  1  2  1  0  0  0  0
  2  3  2  0  0  0  0
  2  4  1  0  0  0  0
  3  5  1  0  0  0  0
  6  4  2  0  0  0  0
  5  7  2  0  0  0  0
  7  6  1  0  0  0  0
  6  8  1  0  0  0  0
M  END
>  <Name>
Phenol, 3-amino-

>  <IGC50>
2.48

>  <CAS>
591-27-5

>  <SET>
ws

>  <Species>
Tetrahymena pyriformis

>  <Test duration>
48h

$$$$

  Mrv1808 07152009203D          

  7  7  0  0  0  0            999 V2000
    5.2549    2.3395    0.8951 C   0  0  0  0  0  0  0  0  0  0  0  0
    4.4285    1.0724    0.8882 C   0  0  0  0  0  0  0  0  0  0  0  0
    2.9733    1.3523    0.8898 C   0  0  0  0  0  0  0  0  0  0  0  0
    2.2366    2.5138    0.8789 C   0  0  0  0  0  0  0  0  0  0  0  0
    2.1213    0.2540    0.9041 O   0  0  0  0  0  0  0  0  0  0  0  0
    0.8509    2.1223    0.8866 C   0  0  0  0  0  0  0  0  0  0  0  0
    0.8382    0.7502    0.9017 C   0  0  0  0  0  0  0  0  0  0  0  0
  1  2  1  0  0  0  0
  2  3  1  0  0  0  0
  4  3  2  0  0  0  0
  3  5  1  0  0  0  0
  6  4  1  0  0  0  0
  5  7  1  0  0  0  0
  7  6  2  0  0  0  0
M  END
>  <Name>
Furan, 2-ethyl-

>  <IGC50>
2.48

>  <CAS>
3208-16-0

>  <SET>
ws

>  <Species>
Tetrahymena pyriformis

>  <Test duration>
48h

$$$$

  Mrv1808 07152009202D          

  8  8  0  0  0  0            999 V2000
    0.0000   -0.7161    0.0000 N   0  0  0  0  0  0  0  0  0  0  0  0
    0.8249   -0.7161    0.0000 C   0  0  0  0  0  0  0  0  0  0  0  0
    1.6499   -0.7161    0.0000 C   0  0  0  0  0  0  0  0  0  0  0  0
    2.0623    0.0000    0.0000 C   0  0  0  0  0  0  0  0  0  0  0  0
    2.0623   -1.4288    0.0000 C   0  0  0  0  0  0  0  0  0  0  0  0
    2.8873    0.0000    0.0000 C   0  0  0  0  0  0  0  0  0  0  0  0
    2.8873   -1.4288    0.0000 C   0  0  0  0  0  0  0  0  0  0  0  0
    3.2998   -0.7161    0.0000 C   0  0  0  0  0  0  0  0  0  0  0  0
  1  2  3  0  0  0  0
  2  3  1  0  0  0  0
  3  4  2  0  0  0  0
  3  5  1  0  0  0  0
  4  6  1  0  0  0  0
  7  5  2  0  0  0  0
  6  8  2  0  0  0  0
  8  7  1  0  0  0  0
M  END
>  <Name>
Benzonitrile

>  <IGC50>
2.48

>  <CAS>
100-47-0

>  <SET>
ws

>  <Species>
Tetrahymena pyriformis

>  <Test duration>
48h

$$$$

  Mrv1808 07152009203D          

  6  5  0  0  0  0            999 V2000
    2.4323    2.0170    1.3221 C   0  0  0  0  0  0  0  0  0  0  0  0
    3.8259    1.5523    1.4284 C   0  0  0  0  0  0  0  0  0  0  0  0
    2.1412    3.3024    1.0948 C   0  0  0  0  0  0  0  0  0  0  0  0
    3.9668    0.2192    1.6314 O   0  0  0  0  0  0  0  0  0  0  0  0
    4.8664    2.1875    1.3614 O   0  0  0  0  0  0  0  0  0  0  0  0
    0.7528    3.7965    0.9809 C   0  0  0  0  0  0  0  0  0  0  0  0
  1  2  1  0  0  0  0
  1  3  2  0  0  0  0
  2  4  1  0  0  0  0
  2  5  2  0  0  0  0
  3  6  1  0  0  0  0
M  END
>  <Name>
2-Butenoic acid, (E)- (9CI)

>  <IGC50>
2.455

>  <CAS>
107-93-7

>  <SET>
ws

>  <Species>
Tetrahymena pyriformis

>  <Test duration>
48h

$$$$

  Mrv1808 07152009203D          

  8  7  0  0  0  0            999 V2000
    1.6985    0.0886   -0.2160 C   0  0  0  0  0  0  0  0  0  0  0  0
    0.3440   -0.4020   -0.6393 C   0  0  1  0  0  0  0  0  0  0  0  0
    2.7786   -0.4427   -0.4067 O   0  0  0  0  0  0  0  0  0  0  0  0
    1.7149    1.2730    0.4310 O   0  0  0  0  0  0  0  0  0  0  0  0
   -0.0388   -1.7451   -0.0510 C   0  0  2  0  0  0  0  0  0  0  0  0
   -0.9555    0.9059   -0.0139 Br  0  0  0  0  0  0  0  0  0  0  0  0
   -1.3546   -2.2211   -0.6468 C   0  0  0  0  0  0  0  0  0  0  0  0
   -0.1208   -1.7158    1.4663 C   0  0  0  0  0  0  0  0  0  0  0  0
  1  2  1  0  0  0  0
  1  3  2  0  0  0  0
  1  4  1  0  0  0  0
  2  5  1  0  0  0  0
  2  6  1  0  0  0  0
  5  7  1  0  0  0  0
  5  8  1  0  0  0  0
M  END
>  <Name>
Butanoic acid, 2-bromo-3-methyl-

>  <IGC50>
2.451

>  <CAS>
565-74-2

>  <SET>
ws

>  <Species>
Tetrahymena pyriformis

>  <Test duration>
48h

$$$$

  Mrv1808 07152009202D          

  9  9  0  0  0  0            999 V2000
    1.6471   -1.4279    0.0000 N   0  0  0  0  0  0  0  0  0  0  0  0
    1.2375   -0.7154    0.0000 C   0  0  0  0  0  0  0  0  0  0  0  0
    2.4721   -1.4279    0.0000 C   0  0  0  0  0  0  0  0  0  0  0  0
    0.4125   -0.7154    0.0000 N   0  0  0  0  0  0  0  0  0  0  0  0
    1.6471    0.0000    0.0000 C   0  0  0  0  0  0  0  0  0  0  0  0
    2.8846   -0.7154    0.0000 C   0  0  0  0  0  0  0  0  0  0  0  0
    0.0000   -1.4279    0.0000 C   0  0  0  0  0  0  0  0  0  0  0  0
    0.0000    0.0000    0.0000 C   0  0  0  0  0  0  0  0  0  0  0  0
    2.4721    0.0000    0.0000 C   0  0  0  0  0  0  0  0  0  0  0  0
  1  2  2  0  0  0  0
  1  3  1  0  0  0  0
  2  4  1  0  0  0  0
  2  5  1  0  0  0  0
  6  3  2  0  0  0  0
  4  7  1  0  0  0  0
  4  8  1  0  0  0  0
  5  9  2  0  0  0  0
  9  6  1  0  0  0  0
M  END
>  <Name>
2-Pyridinamine, N,N-dimethyl- (9CI)

>  <IGC50>
2.45

>  <CAS>
5683-33-0

>  <SET>
ws

>  <Species>
Tetrahymena pyriformis

>  <Test duration>
48h

$$$$

  Mrv1808 07152009203D          

  9  9  0  0  0  0            999 V2000
    1.8165   -0.9372    4.0416 O   0  0  0  0  0  0  0  0  0  0  0  0
    1.8509   -0.9767    2.6799 C   0  0  0  0  0  0  0  0  0  0  0  0
    2.9180   -1.5734    2.0082 C   0  0  0  0  0  0  0  0  0  0  0  0
    0.8008   -0.4105    1.9570 C   0  0  0  0  0  0  0  0  0  0  0  0
    2.9348   -1.6038    0.6137 C   0  0  0  0  0  0  0  0  0  0  0  0
    4.0397   -2.1778    2.7922 C   0  0  0  0  0  0  0  0  0  0  0  0
    0.8176   -0.4410    0.5626 C   0  0  0  0  0  0  0  0  0  0  0  0
    4.0061   -2.2032   -0.0846 N   0  0  0  0  0  0  0  0  0  0  0  0
    1.8846   -1.0376   -0.1090 C   0  0  0  0  0  0  0  0  0  0  0  0
  1  2  1  0  0  0  0
  3  2  1  0  0  0  0
  2  4  2  0  0  0  0
  3  5  2  0  0  0  0
  3  6  1  0  0  0  0
  4  7  1  0  0  0  0
  8  5  1  0  0  0  0
  5  9  1  0  0  0  0
  9  7  2  0  0  0  0
M  END
>  <Name>
2-Amino-o-cresol

>  <IGC50>
2.45

>  <CAS>
53222-92-7

>  <SET>
ws

>  <Species>
Tetrahymena pyriformis

>  <Test duration>
48h

$$$$

  Mrv1808 07152009202D          

  6  5  0  0  0  0            999 V2000
    3.5973    0.4601    0.0000 O   0  0  0  0  0  0  0  0  0  0  0  0
    2.8444    0.0418    0.0000 C   0  0  0  0  0  0  0  0  0  0  0  0
    2.1332    0.4601    0.0000 C   0  0  0  0  0  0  0  0  0  0  0  0
    1.4640    0.0000    0.0000 C   0  0  0  0  0  0  0  0  0  0  0  0
    0.7111    0.4183    0.0000 C   0  0  0  0  0  0  0  0  0  0  0  0
    0.0000    0.7947    0.0000 C   0  0  0  0  0  0  0  0  0  0  0  0
  1  2  1  0  0  0  0
  2  3  1  0  0  0  0
  4  3  2  0  0  0  0
  4  5  1  0  0  0  0
  5  6  3  0  0  0  0
M  END
>  <Name>
Pent-2-en-4-yn-1-ol

>  <IGC50>
2.445

>  <CAS>
5557-88-0

>  <SET>
ws

>  <Species>
Tetrahymena pyriformis

>  <Test duration>
48h

$$$$

  Mrv1808 07152009203D          

  7  7  0  0  0  0            999 V2000
    0.0000    0.0000    0.0000 Br  0  0  0  0  0  0  0  0  0  0  0  0
   -1.8600   -0.2800   -0.1800 C   0  0  0  0  0  0  0  0  0  0  0  0
   -2.3800   -1.5800   -0.0800 C   0  0  0  0  0  0  0  0  0  0  0  0
   -2.7200    0.7800   -0.4200 C   0  0  0  0  0  0  0  0  0  0  0  0
   -3.7800   -1.7600   -0.2000 C   0  0  0  0  0  0  0  0  0  0  0  0
   -4.1000    0.5400   -0.5400 C   0  0  0  0  0  0  0  0  0  0  0  0
   -4.6200   -0.7200   -0.4400 N   0  0  0  0  0  0  0  0  0  0  0  0
  1  2  1  0  0  0  0
  2  3  2  0  0  0  0
  2  4  1  0  0  0  0
  3  5  1  0  0  0  0
  6  4  2  0  0  0  0
  5  7  2  0  0  0  0
  7  6  1  0  0  0  0
M  END
>  <Name>
4-bromanylpyridine hydrochloride

>  <IGC50>
2.44

>  <CAS>
19524-06-2

>  <SET>
ws

>  <Species>
Tetrahymena pyriformis

>  <Test duration>
48h

$$$$

  Mrv1808 07152009202D          

  5  4  0  0  0  0            999 V2000
    0.0000   -0.8256    0.0000 N   0  0  0  0  0  0  0  0  0  0  0  0
    0.7142   -1.2374    0.0000 C   0  0  0  0  0  0  0  0  0  0  0  0
    1.4304   -0.8256    0.0000 C   0  0  0  0  0  0  0  0  0  0  0  0
    1.4304    0.0000    0.0000 N   0  0  0  0  0  0  0  0  0  0  0  0
    2.1446   -1.2374    0.0000 C   0  0  0  0  0  0  0  0  0  0  0  0
  1  2  1  0  0  0  0
  2  3  1  0  0  0  0
  3  4  1  0  0  0  0
  3  5  1  0  0  0  0
M  END
>  <Name>
1,2-Propanediamine

>  <IGC50>
2.44

>  <CAS>
78-90-0

>  <SET>
ws

>  <Species>
Tetrahymena pyriformis

>  <Test duration>
48h

$$$$

  Mrv1808 07152009203D          

  9  8  0  0  0  0            999 V2000
    4.1592    1.6800    1.2871 C   0  0  0  0  0  0  0  0  0  0  0  0
    2.9940    1.4674    2.2236 C   0  0  0  0  0  0  0  0  0  0  0  0
    5.4019    2.1800    2.0045 C   0  0  0  0  0  0  0  0  0  0  0  0
    1.8749    1.0265    1.5660 O   0  0  0  0  0  0  0  0  0  0  0  0
    2.9373    1.6329    3.4254 O   0  0  0  0  0  0  0  0  0  0  0  0
    6.5400    2.4024    1.0208 C   0  0  0  0  0  0  0  0  0  0  0  0
    0.7014    0.7848    2.3110 C   0  0  0  0  0  0  0  0  0  0  0  0
    7.7902    2.8990    1.7291 C   0  0  0  0  0  0  0  0  0  0  0  0
    8.9212    3.1349    0.7538 C   0  0  0  0  0  0  0  0  0  0  0  0
  1  2  1  0  0  0  0
  1  3  1  0  0  0  0
  2  4  1  0  0  0  0
  2  5  2  0  0  0  0
  3  6  1  0  0  0  0
  4  7  1  0  0  0  0
  6  8  1  0  0  0  0
  8  9  1  0  0  0  0
M  END
>  <Name>
Hexanoic acid, methyl ester

>  <IGC50>
2.439

>  <CAS>
106-70-7

>  <SET>
ws

>  <Species>
Tetrahymena pyriformis

>  <Test duration>
48h

$$$$

  Mrv1808 07152009202D          

  6  5  0  0  0  0            999 V2000
    2.8596   -1.2382    0.0000 O   0  0  0  0  0  0  0  0  0  0  0  0
    2.1447   -0.8264    0.0000 C   0  0  0  0  0  0  0  0  0  0  0  0
    1.4298   -1.2382    0.0000 C   0  0  0  0  0  0  0  0  0  0  0  0
    2.1447    0.0000    0.0000 O   0  0  0  0  0  0  0  0  0  0  0  0
    0.7149   -0.8264    0.0000 C   0  0  0  0  0  0  0  0  0  0  0  0
    0.0000   -1.2382    0.0000 C   0  0  0  0  0  0  0  0  0  0  0  0
  1  2  1  0  0  0  0
  2  3  1  0  0  0  0
  2  4  2  0  0  0  0
  3  5  1  0  0  0  0
  5  6  1  0  0  0  0
M  END
>  <Name>
Butanoic acid

>  <IGC50>
2.428

>  <CAS>
107-92-6

>  <SET>
ws

>  <Species>
Tetrahymena pyriformis

>  <Test duration>
48h

$$$$

  Mrv1808 07152009202D          

  6  5  0  0  0  0            999 V2000
    1.2375    0.6600    0.0000 C   0  0  0  0  0  0  0  0  0  0  0  0
    2.0625    0.6600    0.0000 C   0  0  0  0  0  0  0  0  0  0  0  0
    0.4125    0.6600    0.0000 C   0  0  0  0  0  0  0  0  0  0  0  0
    2.8049    0.6600    0.0000 C   0  0  0  0  0  0  0  0  0  0  0  0
    0.0000    0.0000    0.0000 O   0  0  0  0  0  0  0  0  0  0  0  0
    3.2174    1.4024    0.0000 C   0  0  0  0  0  0  0  0  0  0  0  0
  1  2  3  0  0  0  0
  1  3  1  0  0  0  0
  2  4  1  0  0  0  0
  3  5  1  0  0  0  0
  4  6  1  0  0  0  0
M  END
>  <Name>
2-Pentyn-1-ol

>  <IGC50>
2.428

>  <CAS>
6261-22-9

>  <SET>
ws

>  <Species>
Tetrahymena pyriformis

>  <Test duration>
48h

$$$$

  Mrv1808 07152009202D          

  5  4  0  0  0  0            999 V2000
    0.0000   -0.4118    0.0000 C   0  0  0  0  0  0  0  0  0  0  0  0
    0.7149    0.0000    0.0000 C   0  0  0  0  0  0  0  0  0  0  0  0
    1.4298   -0.4118    0.0000 C   0  0  0  0  0  0  0  0  0  0  0  0
    2.1447    0.0000    0.0000 C   0  0  0  0  0  0  0  0  0  0  0  0
    2.8595   -0.4118    0.0000 N   0  0  0  0  0  0  0  0  0  0  0  0
  1  2  1  0  0  0  0
  2  3  1  0  0  0  0
  3  4  1  0  0  0  0
  4  5  1  0  0  0  0
M  END
>  <Name>
1-Butanamine

>  <IGC50>
2.427

>  <CAS>
109-73-9

>  <SET>
ws

>  <Species>
Tetrahymena pyriformis

>  <Test duration>
48h

$$$$

  Mrv1808 07152009202D          

  6  5  0  0  0  0            999 V2000
    1.4437    1.2374    0.0000 C   0  0  0  0  0  0  0  0  0  0  0  0
    0.7425    0.8250    0.0000 C   0  0  0  0  0  0  0  0  0  0  0  0
    2.1449    0.8250    0.0000 C   0  0  0  0  0  0  0  0  0  0  0  0
    0.7425    0.0000    0.0000 C   0  0  0  0  0  0  0  0  0  0  0  0
    0.0000    1.2374    0.0000 C   0  0  0  0  0  0  0  0  0  0  0  0
    2.8873    1.2374    0.0000 N   0  0  0  0  0  0  0  0  0  0  0  0
  1  2  1  0  0  0  0
  1  3  1  0  0  0  0
  2  4  1  0  0  0  0
  2  5  1  0  0  0  0
  3  6  1  0  0  0  0
M  END
>  <Name>
1-Butanamine, 3-methyl-

>  <IGC50>
2.423

>  <CAS>
107-85-7

>  <SET>
ws

>  <Species>
Tetrahymena pyriformis

>  <Test duration>
48h

$$$$

  Mrv1808 07152009203D          

 10 11  0  0  0  0            999 V2000
    0.0000    0.0000    0.0000 O   0  0  0  0  0  0  0  0  0  0  0  0
    0.3200    1.0600    0.8800 C   0  0  1  0  0  0  0  0  0  0  0  0
    1.7600    1.4800    0.6400 C   0  0  0  0  0  0  0  0  0  0  0  0
   -0.5000    2.3200    0.5400 C   0  0  0  0  0  0  0  0  0  0  0  0
    1.8200    2.7000    0.0000 C   0  0  0  0  0  0  0  0  0  0  0  0
    2.9200    0.7800    1.0200 C   0  0  0  0  0  0  0  0  0  0  0  0
    0.4400    3.2200   -0.2800 C   0  0  0  0  0  0  0  0  0  0  0  0
    3.0400    3.3000   -0.3400 C   0  0  0  0  0  0  0  0  0  0  0  0
    4.1600    1.3800    0.6800 C   0  0  0  0  0  0  0  0  0  0  0  0
    4.2200    2.6200    0.0200 C   0  0  0  0  0  0  0  0  0  0  0  0
  1  2  1  0  0  0  0
  2  3  1  0  0  0  0
  2  4  1  0  0  0  0
  3  5  2  0  0  0  0
  3  6  1  0  0  0  0
  7  4  1  0  0  0  0
  5  8  1  0  0  0  0
  5  7  1  0  0  0  0
  9  6  2  0  0  0  0
  8 10  2  0  0  0  0
 10  9  1  0  0  0  0
M  END
>  <Name>
2,3-dihydro-1H-inden-1-ol

>  <IGC50>
2.42

>  <CAS>
6351-10-6

>  <SET>
ws

>  <Species>
Tetrahymena pyriformis

>  <Test duration>
48h

$$$$

  Mrv1808 07152009202D          

 11 10  0  0  0  0            999 V2000
    4.9401   -1.4277    0.0000 O   0  0  0  0  0  0  0  0  0  0  0  0
    4.1151   -1.4277    0.0000 C   0  0  0  0  0  0  0  0  0  0  0  0
    3.7052   -2.1391    0.0000 C   0  0  0  0  0  0  0  0  0  0  0  0
    3.7052   -0.7114    0.0000 O   0  0  0  0  0  0  0  0  0  0  0  0
    2.8801   -2.1391    0.0000 C   0  0  0  0  0  0  0  0  0  0  0  0
    2.4701   -1.4277    0.0000 C   0  0  0  0  0  0  0  0  0  0  0  0
    1.6451   -1.4277    0.0000 C   0  0  0  0  0  0  0  0  0  0  0  0
    1.2351   -0.7114    0.0000 C   0  0  0  0  0  0  0  0  0  0  0  0
    0.4101   -0.7114    0.0000 C   0  0  0  0  0  0  0  0  0  0  0  0
    0.0000   -1.4277    0.0000 O   0  0  0  0  0  0  0  0  0  0  0  0
    0.0000    0.0000    0.0000 O   0  0  0  0  0  0  0  0  0  0  0  0
  1  2  1  0  0  0  0
  2  3  1  0  0  0  0
  2  4  2  0  0  0  0
  3  5  1  0  0  0  0
  5  6  1  0  0  0  0
  6  7  1  0  0  0  0
  7  8  1  0  0  0  0
  8  9  1  0  0  0  0
  9 10  1  0  0  0  0
  9 11  2  0  0  0  0
M  END
>  <Name>
Heptanedioic acid

>  <IGC50>
2.416

>  <CAS>
111-16-0

>  <SET>
ws

>  <Species>
Tetrahymena pyriformis

>  <Test duration>
48h

$$$$

  Mrv1808 07152009202D          

  7  6  0  0  0  0            999 V2000
    0.8683    0.8249    0.0000 C   0  0  0  0  0  0  0  0  0  0  0  0
    1.6933    0.8249    0.0000 C   0  0  0  0  0  0  0  0  0  0  0  0
    0.0000    0.8249    0.0000 C   0  0  0  0  0  0  0  0  0  0  0  0
    0.8683    0.0000    0.0000 C   0  0  0  0  0  0  0  0  0  0  0  0
    0.8683    1.6933    0.0000 Br  0  0  0  0  0  0  0  0  0  0  0  0
    2.1275    1.6065    0.0000 O   0  0  0  0  0  0  0  0  0  0  0  0
    2.1275    0.1302    0.0000 O   0  0  0  0  0  0  0  0  0  0  0  0
  1  2  1  0  0  0  0
  1  3  1  0  0  0  0
  1  4  1  0  0  0  0
  1  5  1  0  0  0  0
  2  6  1  0  0  0  0
  2  7  2  0  0  0  0
M  END
>  <Name>
Propionic acid, 2-bromo-2-methyl- (8CI)

>  <IGC50>
2.416

>  <CAS>
2052-01-9

>  <SET>
ws

>  <Species>
Tetrahymena pyriformis

>  <Test duration>
48h

$$$$

  Mrv1808 07152009202D          

  8  7  0  0  0  0            999 V2000
    0.0000    0.7947    0.0000 C   0  0  0  0  0  0  0  0  0  0  0  0
    0.7529    1.2130    0.0000 C   0  0  0  0  0  0  0  0  0  0  0  0
    1.4639    0.7947    0.0000 C   0  0  0  0  0  0  0  0  0  0  0  0
    2.1751    1.2130    0.0000 C   0  0  0  0  0  0  0  0  0  0  0  0
    2.8861    0.7947    0.0000 C   0  0  0  0  0  0  0  0  0  0  0  0
    3.5972    1.2130    0.0000 C   0  0  0  0  0  0  0  0  0  0  0  0
    2.8861    0.0000    0.0000 N   0  0  0  0  0  0  0  0  0  0  0  0
    4.3501    0.7947    0.0000 O   0  0  0  0  0  0  0  0  0  0  0  0
  1  2  1  0  0  0  0
  2  3  1  0  0  0  0
  3  4  1  0  0  0  0
  4  5  1  0  0  0  0
  5  6  1  0  0  0  0
  5  7  1  0  0  0  0
  6  8  1  0  0  0  0
M  END
>  <Name>
1-Hexanol, 2-amino-

>  <IGC50>
2.415

>  <CAS>
5665-74-7

>  <SET>
ws

>  <Species>
Tetrahymena pyriformis

>  <Test duration>
48h

$$$$

  Mrv1808 07152009202D          

  9  9  0  0  0  0            999 V2000
    1.2551   -2.1491    0.0000 C   0  0  0  0  0  0  0  0  0  0  0  0
    1.6878   -2.8643    0.0000 C   0  0  0  0  0  0  0  0  0  0  0  0
    0.4327   -2.1491    0.0000 C   0  0  0  0  0  0  0  0  0  0  0  0
    1.6485   -1.4268    0.0000 C   0  0  0  0  0  0  0  0  0  0  0  0
    1.2551   -3.5759    0.0000 C   0  0  0  0  0  0  0  0  0  0  0  0
    0.0000   -2.8643    0.0000 C   0  0  0  0  0  0  0  0  0  0  0  0
    1.2373   -0.7116    0.0000 C   0  0  0  0  0  0  0  0  0  0  0  0
    0.4327   -3.5759    0.0000 C   0  0  0  0  0  0  0  0  0  0  0  0
    1.6270    0.0000    0.0000 O   0  0  0  0  0  0  0  0  0  0  0  0
  1  2  2  0  0  0  0
  1  3  1  0  0  0  0
  1  4  1  0  0  0  0
  2  5  1  0  0  0  0
  6  3  2  0  0  0  0
  7  4  1  0  0  0  0
  5  8  2  0  0  0  0
  8  6  1  0  0  0  0
  7  9  1  0  0  0  0
M  END
>  <Name>
Phenethyl alcohol

>  <IGC50>
2.41

>  <CAS>
60-12-8

>  <SET>
ws

>  <Species>
Tetrahymena pyriformis

>  <Test duration>
48h

$$$$

  Mrv1808 07152009202D          

  8  8  0  0  0  0            999 V2000
    2.0841    0.0000    0.0000 C   0  0  0  0  0  0  0  0  0  0  0  0
    2.0841    0.7815    0.0000 C   0  0  0  0  0  0  0  0  0  0  0  0
    2.7789    1.1723    0.0000 O   0  0  0  0  0  0  0  0  0  0  0  0
    1.3894    1.1723    0.0000 C   0  0  0  0  0  0  0  0  0  0  0  0
    0.6947    0.7815    0.0000 S   0  0  0  0  0  0  0  0  0  0  0  0
    1.3894    1.9973    0.0000 C   0  0  0  0  0  0  0  0  0  0  0  0
    0.0000    1.1723    0.0000 C   0  0  0  0  0  0  0  0  0  0  0  0
    0.0000    1.9973    0.0000 C   0  0  0  0  0  0  0  0  0  0  0  0
  1  2  1  0  0  0  0
  2  3  2  0  0  0  0
  2  4  1  0  0  0  0
  4  5  1  0  0  0  0
  6  4  2  0  0  0  0
  5  7  1  0  0  0  0
  8  6  1  0  0  0  0
  7  8  2  0  0  0  0
M  END
>  <Name>
1-thiophen-2-ylethanone

>  <IGC50>
2.41

>  <CAS>
88-15-3

>  <SET>
ws

>  <Species>
Tetrahymena pyriformis

>  <Test duration>
48h

$$$$

  Mrv1808 07152009202D          

  6  6  0  0  0  0            999 V2000
    0.6625    0.0000    0.0000 S   0  0  0  0  0  0  0  0  0  0  0  0
    1.3249    0.4968    0.0000 C   0  0  0  0  0  0  0  0  0  0  0  0
    0.0000    0.4968    0.0000 C   0  0  0  0  0  0  0  0  0  0  0  0
    1.0765    1.2835    0.0000 C   0  0  0  0  0  0  0  0  0  0  0  0
    2.0289    0.0828    0.0000 Cl  0  0  0  0  0  0  0  0  0  0  0  0
    0.2485    1.2835    0.0000 C   0  0  0  0  0  0  0  0  0  0  0  0
  2  1  1  0  0  0  0
  1  3  1  0  0  0  0
  4  2  2  0  0  0  0
  2  5  1  0  0  0  0
  3  6  2  0  0  0  0
  6  4  1  0  0  0  0
M  END
>  <Name>
2-chlorothiophene

>  <IGC50>
2.41

>  <CAS>
96-43-5

>  <SET>
ws

>  <Species>
Tetrahymena pyriformis

>  <Test duration>
48h

$$$$

  Mrv1808 07152009202D          

 10  9  0  0  0  0            999 V2000
    2.8899   -0.8325    0.0000 C   0  0  0  0  0  0  0  0  0  0  0  0
    3.6102   -1.2336    0.0000 C   0  0  0  0  0  0  0  0  0  0  0  0
    2.1653   -1.2336    0.0000 O   0  0  0  0  0  0  0  0  0  0  0  0
    2.8899    0.0000    0.0000 O   0  0  0  0  0  0  0  0  0  0  0  0
    4.3132   -0.8325    0.0000 C   0  0  0  0  0  0  0  0  0  0  0  0
    3.6102   -2.0661    0.0000 C   0  0  0  0  0  0  0  0  0  0  0  0
    1.4363   -0.8325    0.0000 C   0  0  0  0  0  0  0  0  0  0  0  0
    0.7203   -1.2422    0.0000 C   0  0  0  0  0  0  0  0  0  0  0  0
    0.7332   -2.0661    0.0000 C   0  0  0  0  0  0  0  0  0  0  0  0
    0.0000   -0.8325    0.0000 C   0  0  0  0  0  0  0  0  0  0  0  0
  1  2  1  0  0  0  0
  1  3  1  0  0  0  0
  1  4  2  0  0  0  0
  2  5  1  0  0  0  0
  2  6  1  0  0  0  0
  3  7  1  0  0  0  0
  7  8  1  0  0  0  0
  8  9  1  0  0  0  0
  8 10  1  0  0  0  0
M  END
>  <Name>
Propanoic acid, 2-methyl-, 2-methylpropyl ester

>  <IGC50>
2.409

>  <CAS>
97-85-8

>  <SET>
ws

>  <Species>
Tetrahymena pyriformis

>  <Test duration>
48h

$$$$

  Mrv1808 07152009202D          

 10  9  0  0  0  0            999 V2000
    0.0000   -0.8258    0.0000 O   0  0  0  0  0  0  0  0  0  0  0  0
    0.7157   -1.2362    0.0000 C   0  0  0  0  0  0  0  0  0  0  0  0
    1.4314   -0.8258    0.0000 C   0  0  0  0  0  0  0  0  0  0  0  0
    0.7157   -2.0620    0.0000 O   0  0  0  0  0  0  0  0  0  0  0  0
    2.1471   -1.2362    0.0000 C   0  0  0  0  0  0  0  0  0  0  0  0
    2.8578   -0.8258    0.0000 C   0  0  0  0  0  0  0  0  0  0  0  0
    3.5735   -1.2362    0.0000 C   0  0  0  0  0  0  0  0  0  0  0  0
    4.2892   -0.8258    0.0000 C   0  0  0  0  0  0  0  0  0  0  0  0
    5.0049   -1.2362    0.0000 O   0  0  0  0  0  0  0  0  0  0  0  0
    4.2892    0.0000    0.0000 O   0  0  0  0  0  0  0  0  0  0  0  0
  1  2  1  0  0  0  0
  2  3  1  0  0  0  0
  2  4  2  0  0  0  0
  3  5  1  0  0  0  0
  5  6  1  0  0  0  0
  6  7  1  0  0  0  0
  7  8  1  0  0  0  0
  8  9  1  0  0  0  0
  8 10  2  0  0  0  0
M  END
>  <Name>
Hexanedioic acid

>  <IGC50>
2.394

>  <CAS>
124-04-9

>  <SET>
ws

>  <Species>
Tetrahymena pyriformis

>  <Test duration>
48h

$$$$

  Mrv1808 07152009202D          

 10 10  0  0  0  0            999 V2000
    0.7111    1.2130    0.0000 C   0  0  0  0  0  0  0  0  0  0  0  0
    1.4222    1.6313    0.0000 C   0  0  0  0  0  0  0  0  0  0  0  0
    0.7111    0.4183    0.0000 C   0  0  0  0  0  0  0  0  0  0  0  0
    0.0000    1.6313    0.0000 F   0  0  0  0  0  0  0  0  0  0  0  0
    2.1332    1.2130    0.0000 C   0  0  0  0  0  0  0  0  0  0  0  0
    1.4222    0.0000    0.0000 N   0  0  0  0  0  0  0  0  0  0  0  0
    0.0000    0.0000    0.0000 F   0  0  0  0  0  0  0  0  0  0  0  0
    2.1332    0.4183    0.0000 C   0  0  0  0  0  0  0  0  0  0  0  0
    2.8443    1.6313    0.0000 F   0  0  0  0  0  0  0  0  0  0  0  0
    2.8443    0.0000    0.0000 F   0  0  0  0  0  0  0  0  0  0  0  0
  1  2  2  0  0  0  0
  3  1  1  0  0  0  0
  1  4  1  0  0  0  0
  2  5  1  0  0  0  0
  6  3  2  0  0  0  0
  3  7  1  0  0  0  0
  5  8  2  0  0  0  0
  5  9  1  0  0  0  0
  8  6  1  0  0  0  0
  8 10  1  0  0  0  0
M  END
>  <Name>
2,3,5,6-tetrafluoropyridine

>  <IGC50>
2.39

>  <CAS>
2875-18-5

>  <SET>
ws

>  <Species>
Tetrahymena pyriformis

>  <Test duration>
48h

$$$$

  Mrv1808 07152009203D          

 10  9  0  0  0  0            999 V2000
   -1.3338   -0.8083   -0.1489 C   0  0  0  0  0  0  0  0  0  0  0  0
   -2.5463   -0.1750   -0.8166 C   0  0  0  0  0  0  0  0  0  0  0  0
   -1.3221   -1.8149    0.5284 O   0  0  0  0  0  0  0  0  0  0  0  0
   -0.1816   -0.1316   -0.4020 O   0  0  0  0  0  0  0  0  0  0  0  0
   -3.0814    0.8906    0.0008 C   0  0  0  0  0  0  0  0  0  0  0  0
    1.0310   -0.6090    0.1886 C   0  0  0  0  0  0  0  0  0  0  0  0
   -3.5150    1.7494    0.6465 N   0  0  0  0  0  0  0  0  0  0  0  0
    2.1265    0.3604   -0.2442 C   0  0  0  0  0  0  0  0  0  0  0  0
    3.4635   -0.0659    0.3409 C   0  0  0  0  0  0  0  0  0  0  0  0
    4.5701    0.8774   -0.0734 C   0  0  0  0  0  0  0  0  0  0  0  0
  1  2  1  0  0  0  0
  1  3  2  0  0  0  0
  1  4  1  0  0  0  0
  2  5  1  0  0  0  0
  4  6  1  0  0  0  0
  5  7  3  0  0  0  0
  6  8  1  0  0  0  0
  8  9  1  0  0  0  0
  9 10  1  0  0  0  0
M  END
>  <Name>
Acetic acid, cyano-, butyl ester

>  <IGC50>
2.39

>  <CAS>
5459-58-5

>  <SET>
ws

>  <Species>
Tetrahymena pyriformis

>  <Test duration>
48h

$$$$

  Mrv1808 07152009203D          

  8  7  0  0  0  0            999 V2000
    1.0156    3.1855    1.8436 C   0  0  0  0  0  0  0  0  0  0  0  0
    2.0066    4.2720    2.2117 C   0  0  0  0  0  0  0  0  0  0  0  0
    3.3455    3.7568    2.3290 C   0  0  0  0  0  0  0  0  0  0  0  0
    4.4560    3.3338    2.4295 C   0  0  0  0  0  0  0  0  0  0  0  0
    5.7965    2.8292    2.5610 C   0  0  0  0  0  0  0  0  0  0  0  0
    6.1712    1.8911    1.3936 C   0  0  2  0  0  0  0  0  0  0  0  0
    6.2061    0.5805    1.9319 O   0  0  0  0  0  0  0  0  0  0  0  0
    7.5191    2.2816    0.7868 C   0  0  0  0  0  0  0  0  0  0  0  0
  1  2  1  0  0  0  0
  2  3  1  0  0  0  0
  3  4  3  0  0  0  0
  4  5  1  0  0  0  0
  5  6  1  0  0  0  0
  6  7  1  0  0  0  0
  6  8  1  0  0  0  0
M  END
>  <Name>
Hept-4-yn-2-ol

>  <IGC50>
2.384

>  <CAS>
19781-81-8

>  <SET>
ws

>  <Species>
Tetrahymena pyriformis

>  <Test duration>
48h

$$$$

  Mrv1808 07152009203D          

  9  9  0  0  0  0            999 V2000
    1.8316   -0.9381    4.0226 F   0  0  0  0  0  0  0  0  0  0  0  0
    1.8497   -0.9689    2.6836 C   0  0  0  0  0  0  0  0  0  0  0  0
    0.7994   -0.4058    1.9588 C   0  0  0  0  0  0  0  0  0  0  0  0
    2.9185   -1.5646    2.0141 C   0  0  0  0  0  0  0  0  0  0  0  0
    0.8178   -0.4385    0.5644 C   0  0  0  0  0  0  0  0  0  0  0  0
    2.9371   -1.5972    0.6197 C   0  0  0  0  0  0  0  0  0  0  0  0
    1.8867   -1.0341   -0.1051 C   0  0  0  0  0  0  0  0  0  0  0  0
    1.9065   -1.0699   -1.5959 C   0  0  0  0  0  0  0  0  0  0  0  0
    1.2685   -2.2578   -2.0485 O   0  0  0  0  0  0  0  0  0  0  0  0
  1  2  1  0  0  0  0
  3  2  2  0  0  0  0
  4  2  1  0  0  0  0
  5  3  1  0  0  0  0
  6  4  2  0  0  0  0
  7  5  2  0  0  0  0
  7  6  1  0  0  0  0
  7  8  1  0  0  0  0
  9  8  1  0  0  0  0
M  END
>  <Name>
Benzenemethanol, 4-fluoro- (9CI)

>  <IGC50>
2.38

>  <CAS>
459-56-3

>  <SET>
ws

>  <Species>
Tetrahymena pyriformis

>  <Test duration>
48h

$$$$

  Mrv1808 07152009203D          

  8  7  0  0  0  0            999 V2000
   -0.7764    0.5120   -0.2267 O   0  0  0  0  0  0  0  0  0  0  0  0
    0.1781   -0.4560   -0.0734 C   0  0  0  0  0  0  0  0  0  0  0  0
   -2.0640    0.0271   -0.3551 C   0  0  0  0  0  0  0  0  0  0  0  0
   -0.0009   -1.6661   -0.0412 O   0  0  0  0  0  0  0  0  0  0  0  0
    1.5164    0.1942    0.0431 C   0  0  0  0  0  0  0  0  0  0  0  0
   -3.0744    0.3114    0.4695 C   0  0  0  0  0  0  0  0  0  0  0  0
    1.6409    1.6863   -0.0083 C   0  0  0  0  0  0  0  0  0  0  0  0
    2.5803   -0.6088    0.1921 C   0  0  0  0  0  0  0  0  0  0  0  0
  1  2  1  0  0  0  0
  1  3  1  0  0  0  0
  4  2  2  0  0  0  0
  5  2  1  0  0  0  0
  3  6  2  0  0  0  0
  5  7  1  0  0  0  0
  5  8  2  0  0  0  0
M  END
>  <Name>
ethenyl 2-methylprop-2-enoate

>  <IGC50>
2.38

>  <CAS>
4245-37-8

>  <SET>
ws

>  <Species>
Tetrahymena pyriformis

>  <Test duration>
48h

$$$$

  Mrv1808 07152009203D          

  8  7  0  0  0  0            999 V2000
    0.0000    0.0000    0.0000 O   0  0  0  0  0  0  0  0  0  0  0  0
    0.0000    0.6000   -1.0400 C   0  0  0  0  0  0  0  0  0  0  0  0
    0.5000    1.9800   -1.1200 C   0  0  0  0  0  0  0  0  0  0  0  0
   -0.4200    0.0800   -2.1800 O   0  0  0  0  0  0  0  0  0  0  0  0
    1.0200    2.6800    0.1200 C   0  0  0  0  0  0  0  0  0  0  0  0
    0.5200    2.6400   -2.2800 C   0  0  0  0  0  0  0  0  0  0  0  0
   -0.9000   -1.2400   -2.0400 C   0  0  0  0  0  0  0  0  0  0  0  0
    1.0400    4.0600   -2.3000 C   0  0  0  0  0  0  0  0  0  0  0  0
  1  2  2  0  0  0  0
  2  3  1  0  0  0  0
  2  4  1  0  0  0  0
  3  5  1  0  0  0  0
  3  6  2  0  0  0  0
  4  7  1  0  0  0  0
  6  8  1  0  0  0  0
M  END
>  <Name>
methyl (E)-2-methylbut-2-enoate

>  <IGC50>
2.38

>  <CAS>
6622-76-0

>  <SET>
ws

>  <Species>
Tetrahymena pyriformis

>  <Test duration>
48h

$$$$

  Mrv1808 07152009203D          

 10 10  0  0  0  0            999 V2000
    1.2797    3.6704    1.5394 C   0  0  0  0  0  0  0  0  0  0  0  0
    2.3573    2.9522    1.0321 C   0  0  0  0  0  0  0  0  0  0  0  0
    0.8502    3.4538    2.8433 C   0  0  0  0  0  0  0  0  0  0  0  0
    3.0114    2.0105    1.8266 C   0  0  0  0  0  0  0  0  0  0  0  0
    1.5018    2.5193    3.6423 C   0  0  0  0  0  0  0  0  0  0  0  0
    2.5782    1.7995    3.1376 C   0  0  0  0  0  0  0  0  0  0  0  0
    4.1664    1.2327    1.2852 C   0  0  0  0  0  0  0  0  0  0  0  0
    5.5120    1.8697    1.6860 C   0  0  1  0  0  0  0  0  0  0  0  0
    6.6707    0.9645    1.2804 C   0  0  0  0  0  0  0  0  0  0  0  0
    5.7258    3.1153    1.0484 O   0  0  0  0  0  0  0  0  0  0  0  0
  1  2  2  0  0  0  0
  3  1  1  0  0  0  0
  2  4  1  0  0  0  0
  5  3  2  0  0  0  0
  4  6  2  0  0  0  0
  4  7  1  0  0  0  0
  6  5  1  0  0  0  0
  7  8  1  0  0  0  0
  9  8  1  0  0  0  0
  8 10  1  0  0  0  0
M  END
>  <Name>
1-phenylpropan-2-ol

>  <IGC50>
2.38

>  <CAS>
14898-87-4

>  <SET>
ws

>  <Species>
Tetrahymena pyriformis

>  <Test duration>
48h

$$$$

  Mrv1808 07152009203D          

  9  8  0  0  0  0            999 V2000
    0.3634    0.5002   -0.0781 C   0  0  0  0  0  0  0  0  0  0  0  0
    1.4821   -0.5100   -0.1865 C   0  0  0  0  0  0  0  0  0  0  0  0
    0.4314    1.7128   -0.0408 O   0  0  0  0  0  0  0  0  0  0  0  0
   -0.8637   -0.0991   -0.0331 O   0  0  0  0  0  0  0  0  0  0  0  0
    2.8345    0.0798    0.1797 C   0  0  0  0  0  0  0  0  0  0  0  0
   -2.0209    0.7322    0.0422 C   0  0  0  0  0  0  0  0  0  0  0  0
    3.9308   -0.9518    0.0359 C   0  0  0  0  0  0  0  0  0  0  0  0
   -3.2502   -0.1129    0.0655 C   0  0  0  0  0  0  0  0  0  0  0  0
   -3.3031   -1.4381    0.0199 C   0  0  0  0  0  0  0  0  0  0  0  0
  1  2  1  0  0  0  0
  1  3  2  0  0  0  0
  1  4  1  0  0  0  0
  2  5  1  0  0  0  0
  4  6  1  0  0  0  0
  5  7  1  0  0  0  0
  6  8  1  0  0  0  0
  8  9  2  0  0  0  0
M  END
>  <Name>
Butanoic acid, 2-propenyl ester

>  <IGC50>
2.365

>  <CAS>
2051-78-7

>  <SET>
ws

>  <Species>
Tetrahymena pyriformis

>  <Test duration>
48h

$$$$

  Mrv1808 07152009203D          

  7  6  0  0  0  0            999 V2000
    2.1258   -0.4416   -0.3461 C   0  0  0  0  0  0  0  0  0  0  0  0
    0.8684    0.1112    0.3178 C   0  0  0  0  0  0  0  0  0  0  0  0
    3.2266    0.2759    0.1637 O   0  0  0  0  0  0  0  0  0  0  0  0
   -0.3688   -0.6278   -0.1670 C   0  0  0  0  0  0  0  0  0  0  0  0
   -1.6491    0.0374    0.3415 C   0  0  1  0  0  0  0  0  0  0  0  0
   -1.8011    1.4284   -0.2536 C   0  0  0  0  0  0  0  0  0  0  0  0
   -2.8590   -0.8189    0.0090 C   0  0  0  0  0  0  0  0  0  0  0  0
  1  2  1  0  0  0  0
  1  3  1  0  0  0  0
  2  4  1  0  0  0  0
  4  5  1  0  0  0  0
  5  6  1  0  0  0  0
  5  7  1  0  0  0  0
M  END
>  <Name>
1-Pentanol, 4-methyl- (9CI)

>  <IGC50>
2.363

>  <CAS>
626-89-1

>  <SET>
ws

>  <Species>
Tetrahymena pyriformis

>  <Test duration>
48h

$$$$

  Mrv1808 07152009202D          

 16 15  0  0  0  0            999 V2000
    0.0000    0.8014    0.0000 C   0  0  0  0  0  0  0  0  0  0  0  0
    0.7212    1.2020    0.0000 C   0  0  0  0  0  0  0  0  0  0  0  0
    1.4024    0.8014    0.0000 O   0  0  0  0  0  0  0  0  0  0  0  0
    2.0835    1.2020    0.0000 C   0  0  0  0  0  0  0  0  0  0  0  0
    2.8047    0.8014    0.0000 C   0  0  0  0  0  0  0  0  0  0  0  0
    2.0835    2.0033    0.0000 O   0  0  0  0  0  0  0  0  0  0  0  0
    3.4858    1.2020    0.0000 C   0  0  0  0  0  0  0  0  0  0  0  0
    4.2070    0.8014    0.0000 C   0  0  0  0  0  0  0  0  0  0  0  0
    4.8480    1.2020    0.0000 C   0  0  0  0  0  0  0  0  0  0  0  0
    4.2070    0.0000    0.0000 O   0  0  0  0  0  0  0  0  0  0  0  0
    5.5292    0.8014    0.0000 C   0  0  0  0  0  0  0  0  0  0  0  0
    6.2504    1.2020    0.0000 C   0  0  0  0  0  0  0  0  0  0  0  0
    6.9315    0.8014    0.0000 O   0  0  0  0  0  0  0  0  0  0  0  0
    6.2504    2.0033    0.0000 O   0  0  0  0  0  0  0  0  0  0  0  0
    7.6126    1.2020    0.0000 C   0  0  0  0  0  0  0  0  0  0  0  0
    8.3339    0.8014    0.0000 C   0  0  0  0  0  0  0  0  0  0  0  0
  1  2  1  0  0  0  0
  2  3  1  0  0  0  0
  3  4  1  0  0  0  0
  4  5  1  0  0  0  0
  4  6  2  0  0  0  0
  5  7  1  0  0  0  0
  7  8  1  0  0  0  0
  8  9  1  0  0  0  0
  8 10  2  0  0  0  0
  9 11  1  0  0  0  0
 11 12  1  0  0  0  0
 12 13  1  0  0  0  0
 12 14  2  0  0  0  0
 13 15  1  0  0  0  0
 15 16  1  0  0  0  0
M  END
>  <Name>
Heptanedioic acid, 4-oxo-, diethyl ester

>  <IGC50>
2.362

>  <CAS>
6317-49-3

>  <SET>
ws

>  <Species>
Tetrahymena pyriformis

>  <Test duration>
48h

$$$$

  Mrv1808 07152009202D          

  9  8  0  0  0  0            999 V2000
    4.2828   -1.2377    0.0000 O   0  0  0  0  0  0  0  0  0  0  0  0
    3.5676   -0.8266    0.0000 C   0  0  0  0  0  0  0  0  0  0  0  0
    2.8567   -1.2377    0.0000 C   0  0  0  0  0  0  0  0  0  0  0  0
    3.5676    0.0000    0.0000 O   0  0  0  0  0  0  0  0  0  0  0  0
    2.1414   -0.8266    0.0000 C   0  0  0  0  0  0  0  0  0  0  0  0
    1.4262   -1.2377    0.0000 C   0  0  0  0  0  0  0  0  0  0  0  0
    0.7152   -0.8266    0.0000 C   0  0  0  0  0  0  0  0  0  0  0  0
    0.0000   -1.2377    0.0000 O   0  0  0  0  0  0  0  0  0  0  0  0
    0.7152    0.0000    0.0000 O   0  0  0  0  0  0  0  0  0  0  0  0
  1  2  1  0  0  0  0
  2  3  1  0  0  0  0
  2  4  2  0  0  0  0
  3  5  1  0  0  0  0
  5  6  1  0  0  0  0
  6  7  1  0  0  0  0
  7  8  1  0  0  0  0
  7  9  2  0  0  0  0
M  END
>  <Name>
Pentanedioic acid

>  <IGC50>
2.361

>  <CAS>
110-94-1

>  <SET>
ws

>  <Species>
Tetrahymena pyriformis

>  <Test duration>
48h

$$$$

  Mrv1808 07152009202D          

  7  6  0  0  0  0            999 V2000
    0.0000    0.0000    0.0000 C   0  0  0  0  0  0  0  0  0  0  0  0
    0.7134   -0.4143    0.0000 C   0  0  0  0  0  0  0  0  0  0  0  0
    1.4269    0.0000    0.0000 C   0  0  0  0  0  0  0  0  0  0  0  0
    0.7134   -1.2485    0.0000 O   0  0  0  0  0  0  0  0  0  0  0  0
    2.1633   -0.4143    0.0000 C   0  0  0  0  0  0  0  0  0  0  0  0
    2.8768    0.0000    0.0000 C   0  0  0  0  0  0  0  0  0  0  0  0
    2.1633   -1.2485    0.0000 C   0  0  0  0  0  0  0  0  0  0  0  0
  1  2  1  0  0  0  0
  2  3  1  0  0  0  0
  2  4  2  0  0  0  0
  3  5  2  0  0  0  0
  5  6  1  0  0  0  0
  5  7  1  0  0  0  0
M  END
>  <Name>
3-Penten-2-one, 4-methyl-

>  <IGC50>
2.36

>  <CAS>
141-79-7

>  <SET>
ws

>  <Species>
Tetrahymena pyriformis

>  <Test duration>
48h

$$$$

  Mrv1808 07152009202D          

  6  5  0  0  0  0            999 V2000
    1.4640    0.0418    0.0000 C   0  0  0  0  0  0  0  0  0  0  0  0
    2.1751    0.4601    0.0000 C   0  0  0  0  0  0  0  0  0  0  0  0
    0.7529    0.4183    0.0000 C   0  0  0  0  0  0  0  0  0  0  0  0
    2.1751    1.2967    0.0000 O   0  0  0  0  0  0  0  0  0  0  0  0
    2.9281    0.0418    0.0000 O   0  0  0  0  0  0  0  0  0  0  0  0
    0.0000    0.0000    0.0000 C   0  0  0  0  0  0  0  0  0  0  0  0
  1  2  1  0  0  0  0
  1  3  1  0  0  0  0
  2  4  1  0  0  0  0
  2  5  2  0  0  0  0
  3  6  2  0  0  0  0
M  END
>  <Name>
But-3-enoic acid

>  <IGC50>
2.358

>  <CAS>
625-38-7

>  <SET>
ws

>  <Species>
Tetrahymena pyriformis

>  <Test duration>
48h

$$$$

  Mrv1808 07152009202D          

  8  7  0  0  0  0            999 V2000
    3.5759   -1.2373    0.0000 C   0  0  0  0  0  0  0  0  0  0  0  0
    2.8608   -0.8260    0.0000 C   0  0  0  0  0  0  0  0  0  0  0  0
    2.8608    0.0000    0.0000 O   0  0  0  0  0  0  0  0  0  0  0  0
    2.1456   -1.2373    0.0000 C   0  0  0  0  0  0  0  0  0  0  0  0
    1.4304   -0.8260    0.0000 C   0  0  0  0  0  0  0  0  0  0  0  0
    0.7152   -1.2373    0.0000 C   0  0  0  0  0  0  0  0  0  0  0  0
    0.7152   -2.0633    0.0000 C   0  0  0  0  0  0  0  0  0  0  0  0
    0.0000   -0.8260    0.0000 C   0  0  0  0  0  0  0  0  0  0  0  0
  1  2  1  0  0  0  0
  2  3  2  0  0  0  0
  2  4  1  0  0  0  0
  4  5  1  0  0  0  0
  5  6  1  0  0  0  0
  6  7  1  0  0  0  0
  6  8  1  0  0  0  0
M  END
>  <Name>
2-Hexanone, 5-methyl-

>  <IGC50>
2.354

>  <CAS>
110-12-3

>  <SET>
ws

>  <Species>
Tetrahymena pyriformis

>  <Test duration>
48h

$$$$

  Mrv1808 07152009202D          

  8  8  0  0  0  0            999 V2000
    2.8596   -1.6500    0.0000 O   0  0  0  0  0  0  0  0  0  0  0  0
    2.1447   -1.2382    0.0000 C   0  0  0  0  0  0  0  0  0  0  0  0
    1.4298   -1.6500    0.0000 C   0  0  0  0  0  0  0  0  0  0  0  0
    2.1447   -0.4118    0.0000 C   0  0  0  0  0  0  0  0  0  0  0  0
    0.7149   -1.2382    0.0000 C   0  0  0  0  0  0  0  0  0  0  0  0
    1.4298    0.0000    0.0000 C   0  0  0  0  0  0  0  0  0  0  0  0
    0.7149   -0.4118    0.0000 C   0  0  0  0  0  0  0  0  0  0  0  0
    0.0000   -1.6500    0.0000 O   0  0  0  0  0  0  0  0  0  0  0  0
  1  2  1  0  0  0  0
  2  3  2  0  0  0  0
  2  4  1  0  0  0  0
  3  5  1  0  0  0  0
  6  4  2  0  0  0  0
  5  7  2  0  0  0  0
  5  8  1  0  0  0  0
  7  6  1  0  0  0  0
M  END
>  <Name>
1,3-Benzenediol

>  <IGC50>
2.35

>  <CAS>
108-46-3

>  <SET>
ws

>  <Species>
Tetrahymena pyriformis

>  <Test duration>
48h

$$$$

  Mrv1808 07152009202D          

  9  8  0  0  0  0            999 V2000
    1.4289   -1.2401    0.0000 C   0  0  0  0  0  0  0  0  0  0  0  0
    1.4289   -2.0639    0.0000 O   0  0  0  0  0  0  0  0  0  0  0  0
    2.1454   -0.8239    0.0000 O   0  0  0  0  0  0  0  0  0  0  0  0
    0.7166   -0.8239    0.0000 C   0  0  0  0  0  0  0  0  0  0  0  0
    2.8620   -1.2401    0.0000 C   0  0  0  0  0  0  0  0  0  0  0  0
    0.0000   -1.2401    0.0000 C   0  0  0  0  0  0  0  0  0  0  0  0
    0.7166    0.0000    0.0000 C   0  0  0  0  0  0  0  0  0  0  0  0
    3.5743   -0.8239    0.0000 C   0  0  0  0  0  0  0  0  0  0  0  0
    4.2909   -1.2401    0.0000 C   0  0  0  0  0  0  0  0  0  0  0  0
  1  2  2  0  0  0  0
  1  3  1  0  0  0  0
  1  4  1  0  0  0  0
  3  5  1  0  0  0  0
  4  6  1  0  0  0  0
  4  7  2  0  0  0  0
  5  8  1  0  0  0  0
  8  9  1  0  0  0  0
M  END
>  <Name>
2-Propenoic acid, 2-methyl-, propyl ester

>  <IGC50>
2.35

>  <CAS>
2210-28-8

>  <SET>
ws

>  <Species>
Tetrahymena pyriformis

>  <Test duration>
48h

$$$$

  Mrv1808 07152009203D          

 13 12  0  0  0  0            999 V2000
   -2.1057    0.9080    0.0047 O   0  0  0  0  0  0  0  0  0  0  0  0
   -0.9797    0.0960    0.0038 C   0  0  0  0  0  0  0  0  0  0  0  0
   -1.9327    2.3196    0.0040 C   0  0  0  0  0  0  0  0  0  0  0  0
   -1.1715   -1.2843    0.0034 O   0  0  0  0  0  0  0  0  0  0  0  0
    0.2839    0.5670    0.0024 C   0  0  0  0  0  0  0  0  0  0  0  0
   -3.2932    2.9830   -0.0099 C   0  0  0  0  0  0  0  0  0  0  0  0
   -2.5348   -1.6935    0.0050 C   0  0  0  0  0  0  0  0  0  0  0  0
    1.4819   -0.3136    0.0014 C   0  0  0  0  0  0  0  0  0  0  0  0
   -2.5955   -3.2061   -0.0106 C   0  0  0  0  0  0  0  0  0  0  0  0
    2.5788    0.4932   -0.0005 O   0  0  0  0  0  0  0  0  0  0  0  0
    1.4767   -1.5336    0.0021 O   0  0  0  0  0  0  0  0  0  0  0  0
    3.8408   -0.1825   -0.0018 C   0  0  0  0  0  0  0  0  0  0  0  0
    4.9511    0.8466   -0.0039 C   0  0  0  0  0  0  0  0  0  0  0  0
  1  2  1  0  0  0  0
  1  3  1  0  0  0  0
  4  2  1  0  0  0  0
  2  5  2  0  0  0  0
  3  6  1  0  0  0  0
  4  7  1  0  0  0  0
  5  8  1  0  0  0  0
  7  9  1  0  0  0  0
 10  8  1  0  0  0  0
 11  8  2  0  0  0  0
 10 12  1  0  0  0  0
 12 13  1  0  0  0  0
M  END
>  <Name>
ethyl 3,3-diethoxyprop-2-enoate

>  <IGC50>
2.35

>  <CAS>
32002-24-7

>  <SET>
ws

>  <Species>
Tetrahymena pyriformis

>  <Test duration>
48h

$$$$

  Mrv1808 07152009203D          

  7  6  0  0  0  0            999 V2000
    0.4600    0.1662    0.0006 C   0  0  0  0  0  0  0  0  0  0  0  0
    1.5911   -0.8371    0.0013 C   0  0  0  0  0  0  0  0  0  0  0  0
    0.5141    1.3774    0.0005 O   0  0  0  0  0  0  0  0  0  0  0  0
   -0.7633   -0.4641    0.0001 O   0  0  0  0  0  0  0  0  0  0  0  0
    2.9528   -0.1813   -0.0016 C   0  0  0  0  0  0  0  0  0  0  0  0
   -1.9278    0.2871   -0.0004 C   0  0  0  0  0  0  0  0  0  0  0  0
   -3.0713   -0.3983   -0.0006 C   0  0  0  0  0  0  0  0  0  0  0  0
  1  2  1  0  0  0  0
  1  3  2  0  0  0  0
  1  4  1  0  0  0  0
  2  5  1  0  0  0  0
  4  6  1  0  0  0  0
  6  7  2  0  0  0  0
M  END
>  <Name>
Propanoic acid, ethenyl ester

>  <IGC50>
2.347

>  <CAS>
105-38-4

>  <SET>
ws

>  <Species>
Tetrahymena pyriformis

>  <Test duration>
48h

$$$$

  Mrv1808 07152009203D          

  8  7  0  0  0  0            999 V2000
    4.4799    1.1974    0.9532 O   0  0  0  0  0  0  0  0  0  0  0  0
    3.2263    1.7418    0.9171 C   0  0  0  0  0  0  0  0  0  0  0  0
    5.6026    2.0860    0.9378 C   0  0  0  0  0  0  0  0  0  0  0  0
    2.1485    0.6821    0.9418 C   0  0  0  0  0  0  0  0  0  0  0  0
    3.1129    2.9502    0.8695 O   0  0  0  0  0  0  0  0  0  0  0  0
    6.7866    1.2610    1.0277 C   0  0  0  0  0  0  0  0  0  0  0  0
    0.7554    1.2680    0.9233 C   0  0  0  0  0  0  0  0  0  0  0  0
    7.7708    0.5946    1.1004 C   0  0  0  0  0  0  0  0  0  0  0  0
  1  2  1  0  0  0  0
  1  3  1  0  0  0  0
  2  4  1  0  0  0  0
  2  5  2  0  0  0  0
  3  6  1  0  0  0  0
  4  7  1  0  0  0  0
  6  8  3  0  0  0  0
M  END
>  <Name>
2-Propyn-1-ol, propanoate

>  <IGC50>
2.345

>  <CAS>
1932-92-9

>  <SET>
ws

>  <Species>
Tetrahymena pyriformis

>  <Test duration>
48h

$$$$

  Mrv1808 07152009202D          

  9  9  0  0  0  0            999 V2000
    0.0000   -1.6499    0.0000 N   0  0  0  0  0  0  0  0  0  0  0  0
    0.7148   -1.2381    0.0000 C   0  0  0  0  0  0  0  0  0  0  0  0
    0.7148   -0.4118    0.0000 C   0  0  0  0  0  0  0  0  0  0  0  0
    1.4297   -1.6499    0.0000 C   0  0  0  0  0  0  0  0  0  0  0  0
    1.4297    0.0000    0.0000 C   0  0  0  0  0  0  0  0  0  0  0  0
    0.0000    0.0000    0.0000 C   0  0  0  0  0  0  0  0  0  0  0  0
    2.1445   -1.2381    0.0000 C   0  0  0  0  0  0  0  0  0  0  0  0
    2.1445   -0.4118    0.0000 C   0  0  0  0  0  0  0  0  0  0  0  0
    2.8594   -1.6499    0.0000 N   0  0  0  0  0  0  0  0  0  0  0  0
  1  2  1  0  0  0  0
  2  3  2  0  0  0  0
  2  4  1  0  0  0  0
  3  5  1  0  0  0  0
  3  6  1  0  0  0  0
  7  4  2  0  0  0  0
  5  8  2  0  0  0  0
  8  7  1  0  0  0  0
  7  9  1  0  0  0  0
M  END
>  <Name>
1,3-Benzenediamine, 4-methyl-

>  <IGC50>
2.34

>  <CAS>
95-80-7

>  <SET>
ws

>  <Species>
Tetrahymena pyriformis

>  <Test duration>
48h

$$$$

  Mrv1808 07152009202D          

  9  9  0  0  0  0            999 V2000
    2.8846   -0.7154    0.0000 C   0  0  0  0  0  0  0  0  0  0  0  0
    2.4721   -1.4279    0.0000 C   0  0  0  0  0  0  0  0  0  0  0  0
    2.4721    0.0000    0.0000 C   0  0  0  0  0  0  0  0  0  0  0  0
    1.6471   -1.4279    0.0000 C   0  0  0  0  0  0  0  0  0  0  0  0
    1.6471    0.0000    0.0000 C   0  0  0  0  0  0  0  0  0  0  0  0
    1.2375   -0.7154    0.0000 C   0  0  0  0  0  0  0  0  0  0  0  0
    0.4125   -0.7154    0.0000 C   0  0  0  0  0  0  0  0  0  0  0  0
    0.0000   -1.4279    0.0000 O   0  0  0  0  0  0  0  0  0  0  0  0
    0.0000    0.0000    0.0000 C   0  0  0  0  0  0  0  0  0  0  0  0
  1  2  2  0  0  0  0
  1  3  1  0  0  0  0
  2  4  1  0  0  0  0
  3  5  2  0  0  0  0
  4  6  2  0  0  0  0
  6  5  1  0  0  0  0
  6  7  1  0  0  0  0
  7  8  1  0  0  0  0
  7  9  1  0  0  0  0
M  END
>  <Name>
(1)-alpha-Methylbenzyl alcohol

>  <IGC50>
2.34

>  <CAS>
98-85-1

>  <SET>
ws

>  <Species>
Tetrahymena pyriformis

>  <Test duration>
48h

$$$$

  Mrv1808 07152009202D          

 14 14  0  0  0  0            999 V2000
    7.1367   -0.4139    0.0000 N   0  0  0  0  0  0  0  0  0  0  0  0
    6.4230    0.0000    0.0000 C   0  0  0  0  0  0  0  0  0  0  0  0
    5.7094   -0.4139    0.0000 C   0  0  0  0  0  0  0  0  0  0  0  0
    4.9957    0.0000    0.0000 C   0  0  0  0  0  0  0  0  0  0  0  0
    4.2820   -0.4139    0.0000 N   0  0  0  0  0  0  0  0  0  0  0  0
    4.2820   -1.2346    0.0000 C   0  0  0  0  0  0  0  0  0  0  0  0
    3.5683    0.0000    0.0000 C   0  0  0  0  0  0  0  0  0  0  0  0
    3.5683   -1.6486    0.0000 C   0  0  0  0  0  0  0  0  0  0  0  0
    2.8547   -0.4139    0.0000 C   0  0  0  0  0  0  0  0  0  0  0  0
    2.8547   -1.2346    0.0000 N   0  0  0  0  0  0  0  0  0  0  0  0
    2.1410   -1.6486    0.0000 C   0  0  0  0  0  0  0  0  0  0  0  0
    1.4273   -1.2346    0.0000 C   0  0  0  0  0  0  0  0  0  0  0  0
    0.7136   -1.6486    0.0000 C   0  0  0  0  0  0  0  0  0  0  0  0
    0.0000   -1.2346    0.0000 N   0  0  0  0  0  0  0  0  0  0  0  0
  1  2  1  0  0  0  0
  2  3  1  0  0  0  0
  3  4  1  0  0  0  0
  4  5  1  0  0  0  0
  5  6  1  0  0  0  0
  5  7  1  0  0  0  0
  6  8  1  0  0  0  0
  9  7  1  0  0  0  0
  8 10  1  0  0  0  0
 10  9  1  0  0  0  0
 10 11  1  0  0  0  0
 11 12  1  0  0  0  0
 12 13  1  0  0  0  0
 13 14  1  0  0  0  0
M  END
>  <Name>
N,N'-Bis(3-aminopropyl)piperazine

>  <IGC50>
2.34

>  <CAS>
7209-38-3

>  <SET>
ws

>  <Species>
Tetrahymena pyriformis

>  <Test duration>
48h

$$$$

  Mrv1808 07152009203D          

 11 10  0  0  0  0            999 V2000
   -1.9858    0.6101   -0.0364 C   0  0  0  0  0  0  0  0  0  0  0  0
   -0.9728   -0.1717   -0.8329 C   0  0  0  0  0  0  0  0  0  0  0  0
   -1.8527    1.3162    0.9484 O   0  0  0  0  0  0  0  0  0  0  0  0
   -3.2514    0.5396   -0.5157 O   0  0  0  0  0  0  0  0  0  0  0  0
   -0.0002   -1.0246    0.0003 C   0  0  1  0  0  0  0  0  0  0  0  0
    0.9731   -0.1720    0.8330 C   0  0  0  0  0  0  0  0  0  0  0  0
   -0.7881   -1.9203    0.9601 C   0  0  0  0  0  0  0  0  0  0  0  0
    0.7870   -1.9214   -0.9590 C   0  0  0  0  0  0  0  0  0  0  0  0
    1.9862    0.6093    0.0360 C   0  0  0  0  0  0  0  0  0  0  0  0
    1.8532    1.3129   -0.9506 O   0  0  0  0  0  0  0  0  0  0  0  0
    3.2515    0.5411    0.5166 O   0  0  0  0  0  0  0  0  0  0  0  0
  1  2  1  0  0  0  0
  1  3  2  0  0  0  0
  1  4  1  0  0  0  0
  2  5  1  0  0  0  0
  5  6  1  0  0  0  0
  5  7  1  0  0  0  0
  5  8  1  0  0  0  0
  6  9  1  0  0  0  0
  9 10  2  0  0  0  0
  9 11  1  0  0  0  0
M  END
>  <Name>
Glutaric acid, 3,3-dimethyl- (8CI)

>  <IGC50>
2.336

>  <CAS>
4839-46-7

>  <SET>
ws

>  <Species>
Tetrahymena pyriformis

>  <Test duration>
48h

$$$$

  Mrv1808 07152009203D          

  9  9  0  0  0  0            999 V2000
    0.8754   -2.5262    4.8330 Br  0  0  0  0  0  0  0  0  0  0  0  0
    1.8328   -0.9437    4.1709 C   0  0  2  0  0  0  0  0  0  0  0  0
    1.8509   -0.9767    2.6799 C   0  0  0  0  0  0  0  0  0  0  0  0
    3.1998   -0.8994    4.8560 C   0  0  0  0  0  0  0  0  0  0  0  0
    0.8008   -0.4105    1.9570 C   0  0  0  0  0  0  0  0  0  0  0  0
    2.9180   -1.5734    2.0082 C   0  0  0  0  0  0  0  0  0  0  0  0
    0.8176   -0.4410    0.5626 C   0  0  0  0  0  0  0  0  0  0  0  0
    2.9348   -1.6038    0.6137 C   0  0  0  0  0  0  0  0  0  0  0  0
    1.8846   -1.0376   -0.1090 C   0  0  0  0  0  0  0  0  0  0  0  0
  1  2  1  0  0  0  0
  2  3  1  0  0  0  0
  2  4  1  0  0  0  0
  3  5  2  0  0  0  0
  3  6  1  0  0  0  0
  5  7  1  0  0  0  0
  6  8  2  0  0  0  0
  7  9  2  0  0  0  0
  8  9  1  0  0  0  0
M  END
>  <Name>
alpha-Methylbenzyl bromide

>  <IGC50>
2.331

>  <CAS>
585-71-7

>  <SET>
ws

>  <Species>
Tetrahymena pyriformis

>  <Test duration>
48h

$$$$

  Mrv1808 07152009202D          

 11 11  0  0  0  0            999 V2000
    0.4125   -1.4279    0.0000 C   0  0  0  0  0  0  0  0  0  0  0  0
    0.0000   -2.1432    0.0000 O   0  0  0  0  0  0  0  0  0  0  0  0
    0.0000   -0.7154    0.0000 O   0  0  0  0  0  0  0  0  0  0  0  0
    1.2375   -1.4279    0.0000 C   0  0  0  0  0  0  0  0  0  0  0  0
    1.6471   -0.7154    0.0000 C   0  0  0  0  0  0  0  0  0  0  0  0
    1.6471   -2.1432    0.0000 C   0  0  0  0  0  0  0  0  0  0  0  0
    1.2375    0.0000    0.0000 Cl  0  0  0  0  0  0  0  0  0  0  0  0
    2.4721   -0.7154    0.0000 C   0  0  0  0  0  0  0  0  0  0  0  0
    2.4721   -2.1432    0.0000 C   0  0  0  0  0  0  0  0  0  0  0  0
    1.2375   -2.8557    0.0000 Cl  0  0  0  0  0  0  0  0  0  0  0  0
    2.8846   -1.4279    0.0000 C   0  0  0  0  0  0  0  0  0  0  0  0
  1  2  2  0  0  0  0
  1  3  1  0  0  0  0
  1  4  1  0  0  0  0
  4  5  2  0  0  0  0
  4  6  1  0  0  0  0
  5  7  1  0  0  0  0
  5  8  1  0  0  0  0
  9  6  2  0  0  0  0
  6 10  1  0  0  0  0
  8 11  2  0  0  0  0
 11  9  1  0  0  0  0
M  END
>  <Name>
Benzoic acid, 2,6-dichloro-

>  <IGC50>
2.33

>  <CAS>
50-30-6

>  <SET>
ws

>  <Species>
Tetrahymena pyriformis

>  <Test duration>
48h

$$$$

  Mrv1808 07152009203D          

  9  9  0  0  0  0            999 V2000
    0.7002   -2.0589   -0.1154 F   0  0  0  0  0  0  0  0  0  0  0  0
   -0.0703   -0.9632   -0.0676 C   0  0  0  0  0  0  0  0  0  0  0  0
    0.4876    0.3014   -0.2551 C   0  0  0  0  0  0  0  0  0  0  0  0
   -1.4385   -1.0935    0.1700 C   0  0  0  0  0  0  0  0  0  0  0  0
    1.9504    0.4444   -0.5094 C   0  0  0  0  0  0  0  0  0  0  0  0
   -0.3227    1.4357   -0.2050 C   0  0  0  0  0  0  0  0  0  0  0  0
   -2.2490    0.0407    0.2200 C   0  0  0  0  0  0  0  0  0  0  0  0
    2.6333    0.5883    0.7299 O   0  0  0  0  0  0  0  0  0  0  0  0
   -1.6910    1.3052    0.0326 C   0  0  0  0  0  0  0  0  0  0  0  0
  1  2  1  0  0  0  0
  3  2  1  0  0  0  0
  2  4  2  0  0  0  0
  3  5  1  0  0  0  0
  3  6  2  0  0  0  0
  4  7  1  0  0  0  0
  8  5  1  0  0  0  0
  6  9  1  0  0  0  0
  9  7  2  0  0  0  0
M  END
>  <Name>
(2-fluorophenyl)methanol

>  <IGC50>
2.33

>  <CAS>
446-51-5

>  <SET>
ws

>  <Species>
Tetrahymena pyriformis

>  <Test duration>
48h

$$$$

  Mrv1808 07152009203D          

  5  4  0  0  0  0            999 V2000
   -0.6315    1.4103    0.1115 N   0  0  0  0  0  0  0  0  0  0  0  0
   -0.4568   -0.0021   -0.3155 C   0  0  1  0  0  0  0  0  0  0  0  0
    0.7822   -0.6162    0.3472 C   0  0  0  0  0  0  0  0  0  0  0  0
   -1.6836   -0.8638   -0.0239 C   0  0  0  0  0  0  0  0  0  0  0  0
    2.0721   -0.0114   -0.1594 C   0  0  0  0  0  0  0  0  0  0  0  0
  1  2  1  0  0  0  0
  2  3  1  0  0  0  0
  2  4  1  0  0  0  0
  3  5  1  0  0  0  0
M  END
>  <Name>
(+/-)-sec butylamine

>  <IGC50>
2.329

>  <CAS>
33966-50-6

>  <SET>
ws

>  <Species>
Tetrahymena pyriformis

>  <Test duration>
48h

$$$$

  Mrv1808 07152009202D          

  7  6  0  0  0  0            999 V2000
    1.4221    1.2548    0.0000 C   0  0  0  0  0  0  0  0  0  0  0  0
    0.7111    0.8365    0.0000 C   0  0  0  0  0  0  0  0  0  0  0  0
    2.1750    0.8365    0.0000 C   0  0  0  0  0  0  0  0  0  0  0  0
    0.7111    0.0000    0.0000 O   0  0  0  0  0  0  0  0  0  0  0  0
    0.0000    1.2548    0.0000 O   0  0  0  0  0  0  0  0  0  0  0  0
    2.8861    1.2548    0.0000 C   0  0  0  0  0  0  0  0  0  0  0  0
    3.5972    0.8365    0.0000 Cl  0  0  0  0  0  0  0  0  0  0  0  0
  1  2  1  0  0  0  0
  1  3  1  0  0  0  0
  2  4  1  0  0  0  0
  2  5  2  0  0  0  0
  3  6  1  0  0  0  0
  6  7  1  0  0  0  0
M  END
>  <Name>
Butyric acid, 4-chloro- (8CI)

>  <IGC50>
2.323

>  <CAS>
627-00-9

>  <SET>
ws

>  <Species>
Tetrahymena pyriformis

>  <Test duration>
48h

$$$$

  Mrv1808 07152009203D          

  6  5  0  0  0  0            999 V2000
    1.8133    0.5158   -0.0830 N   0  0  0  0  0  0  0  0  0  0  0  0
    0.6427   -0.3948    0.0016 C   0  0  0  0  0  0  0  0  0  0  0  0
    3.1004   -0.1912    0.0259 C   0  0  0  0  0  0  0  0  0  0  0  0
   -0.6613    0.3937   -0.0055 C   0  0  0  0  0  0  0  0  0  0  0  0
   -1.8583   -0.5443    0.0056 C   0  0  0  0  0  0  0  0  0  0  0  0
   -3.1612    0.2230    0.0047 C   0  0  0  0  0  0  0  0  0  0  0  0
  1  2  1  0  0  0  0
  1  3  1  0  0  0  0
  2  4  1  0  0  0  0
  4  5  1  0  0  0  0
  5  6  1  0  0  0  0
M  END
>  <Name>
1-Butanamine, N-methyl-

>  <IGC50>
2.322

>  <CAS>
110-68-9

>  <SET>
ws

>  <Species>
Tetrahymena pyriformis

>  <Test duration>
48h

$$$$

  Mrv1808 07152009203D          

  8  7  0  0  0  0            999 V2000
    4.0679    2.3175    1.9376 O   0  0  0  0  0  0  0  0  0  0  0  0
    2.8118    2.1684    1.2492 C   0  0  2  0  0  0  0  0  0  0  0  0
    5.2360    2.0577    1.2844 C   0  0  0  0  0  0  0  0  0  0  0  0
    1.8868    3.2340    1.8586 C   0  0  0  0  0  0  0  0  0  0  0  0
    2.2819    0.7563    1.4737 C   0  0  0  0  0  0  0  0  0  0  0  0
    6.4397    2.3020    2.1531 C   0  0  0  0  0  0  0  0  0  0  0  0
    5.2279    1.6716    0.1317 O   0  0  0  0  0  0  0  0  0  0  0  0
    0.6214    3.4022    1.0482 C   0  0  0  0  0  0  0  0  0  0  0  0
  1  2  1  0  0  0  0
  1  3  1  0  0  0  0
  2  4  1  0  0  0  0
  2  5  1  0  0  0  0
  3  6  1  0  0  0  0
  3  7  2  0  0  0  0
  4  8  1  0  0  0  0
M  END
>  <Name>
Acetic acid, 1-methylpropyl ester

>  <IGC50>
2.321

>  <CAS>
105-46-4

>  <SET>
ws

>  <Species>
Tetrahymena pyriformis

>  <Test duration>
48h

$$$$

  Mrv1808 07152009202D          

  9  8  0  0  0  0            999 V2000
    0.7166    0.0000    0.0000 C   0  0  0  0  0  0  0  0  0  0  0  0
    0.7166   -0.8239    0.0000 C   0  0  0  0  0  0  0  0  0  0  0  0
    0.0000   -1.2401    0.0000 C   0  0  0  0  0  0  0  0  0  0  0  0
    1.4289   -1.2401    0.0000 C   0  0  0  0  0  0  0  0  0  0  0  0
    1.4289   -2.0639    0.0000 O   0  0  0  0  0  0  0  0  0  0  0  0
    2.1454   -0.8239    0.0000 O   0  0  0  0  0  0  0  0  0  0  0  0
    2.8620   -1.2401    0.0000 C   0  0  0  0  0  0  0  0  0  0  0  0
    3.5743   -0.8239    0.0000 C   0  0  0  0  0  0  0  0  0  0  0  0
    4.2909   -1.2401    0.0000 C   0  0  0  0  0  0  0  0  0  0  0  0
  1  2  2  0  0  0  0
  2  3  1  0  0  0  0
  2  4  1  0  0  0  0
  4  5  2  0  0  0  0
  4  6  1  0  0  0  0
  6  7  1  0  0  0  0
  7  8  1  0  0  0  0
  8  9  2  0  0  0  0
M  END
>  <Name>
2-Propenoic acid, 2-methyl-, 2-propenyl ester

>  <IGC50>
2.32

>  <CAS>
96-05-9

>  <SET>
ws

>  <Species>
Tetrahymena pyriformis

>  <Test duration>
48h

$$$$

  Mrv1808 07152009202D          

  9  9  0  0  0  0            999 V2000
    1.2313   -0.7135    0.0000 C   0  0  0  0  0  0  0  0  0  0  0  0
    1.6455   -1.4298    0.0000 C   0  0  0  0  0  0  0  0  0  0  0  0
    1.6455    0.0000    0.0000 N   0  0  0  0  0  0  0  0  0  0  0  0
    0.4056   -0.7135    0.0000 C   0  0  0  0  0  0  0  0  0  0  0  0
    2.4712   -1.4298    0.0000 O   0  0  0  0  0  0  0  0  0  0  0  0
    1.2313   -2.1433    0.0000 C   0  0  0  0  0  0  0  0  0  0  0  0
    0.0000   -1.4298    0.0000 C   0  0  0  0  0  0  0  0  0  0  0  0
    2.8769   -0.7135    0.0000 C   0  0  0  0  0  0  0  0  0  0  0  0
    0.4056   -2.1433    0.0000 C   0  0  0  0  0  0  0  0  0  0  0  0
  1  2  1  0  0  0  0
  1  3  1  0  0  0  0
  1  4  2  0  0  0  0
  2  5  1  0  0  0  0
  2  6  2  0  0  0  0
  4  7  1  0  0  0  0
  5  8  1  0  0  0  0
  6  9  1  0  0  0  0
  7  9  2  0  0  0  0
M  END
>  <Name>
Benzenamine, 2-methoxy-

>  <IGC50>
2.31

>  <CAS>
90-04-0

>  <SET>
ws

>  <Species>
Tetrahymena pyriformis

>  <Test duration>
48h

$$$$

  Mrv1808 07152009202D          

  7  6  0  0  0  0            999 V2000
    0.0000   -1.2310    0.0000 O   0  5  0  0  0  0  0  0  0  0  0  0
    0.7101   -0.8171    0.0000 N   0  3  0  0  0  0  0  0  0  0  0  0
    0.7101    0.0000    0.0000 O   0  0  0  0  0  0  0  0  0  0  0  0
    1.4272   -1.2310    0.0000 C   0  0  0  0  0  0  0  0  0  0  0  0
    2.1408   -0.8171    0.0000 C   0  0  0  0  0  0  0  0  0  0  0  0
    2.8579   -1.2310    0.0000 C   0  0  0  0  0  0  0  0  0  0  0  0
    3.5680   -0.8171    0.0000 C   0  0  0  0  0  0  0  0  0  0  0  0
  1  2  1  0  0  0  0
  2  3  2  0  0  0  0
  2  4  1  0  0  0  0
  4  5  1  0  0  0  0
  5  6  1  0  0  0  0
  6  7  1  0  0  0  0
M  CHG  2   1  -1   2   1
M  END
>  <Name>
Butane, 1-nitro-

>  <IGC50>
2.31

>  <CAS>
627-05-4

>  <SET>
ws

>  <Species>
Tetrahymena pyriformis

>  <Test duration>
48h

$$$$

  Mrv1808 07152009203D          

  7  6  0  0  0  0            999 V2000
    2.5781   -1.0785    0.1117 S   0  0  0  0  0  0  0  0  0  0  0  0
    1.3262    0.0257    0.0034 C   0  0  0  0  0  0  0  0  0  0  0  0
    0.1546   -0.2732   -0.6619 N   0  0  0  0  0  0  0  0  0  0  0  0
    1.4232    1.2646    0.5744 N   0  0  0  0  0  0  0  0  0  0  0  0
   -0.9835    0.5901   -0.8163 C   0  0  0  0  0  0  0  0  0  0  0  0
   -1.9815    0.4448    0.3262 C   0  0  0  0  0  0  0  0  0  0  0  0
   -2.5171   -0.9735    0.4625 C   0  0  0  0  0  0  0  0  0  0  0  0
  1  2  2  0  0  0  0
  3  2  1  0  0  0  0
  4  2  1  0  0  0  0
  3  5  1  0  0  0  0
  6  5  1  0  0  0  0
  6  7  1  0  0  0  0
M  END
>  <Name>
propylthiourea

>  <IGC50>
2.31

>  <CAS>
927-67-3

>  <SET>
ws

>  <Species>
Tetrahymena pyriformis

>  <Test duration>
48h

$$$$

  Mrv1808 07152009202D          

  9  9  0  0  0  0            999 V2000
    1.0406    0.0000    0.0000 C   0  0  0  0  0  0  0  0  0  0  0  0
    0.7849   -0.7849    0.0000 N   0  0  0  0  0  0  0  0  0  0  0  0
    1.2688   -1.4519    0.0000 C   0  0  0  0  0  0  0  0  0  0  0  0
    0.0000   -1.0381    0.0000 C   0  0  0  0  0  0  0  0  0  0  0  0
    2.0938   -1.4519    0.0000 C   0  0  0  0  0  0  0  0  0  0  0  0
    0.7849   -2.1189    0.0000 C   0  0  0  0  0  0  0  0  0  0  0  0
    0.0000   -1.8656    0.0000 C   0  0  0  0  0  0  0  0  0  0  0  0
    2.5076   -2.1666    0.0000 O   0  0  0  0  0  0  0  0  0  0  0  0
    2.5076   -0.7372    0.0000 C   0  0  0  0  0  0  0  0  0  0  0  0
  1  2  1  0  0  0  0
  2  3  1  0  0  0  0
  2  4  1  0  0  0  0
  3  5  1  0  0  0  0
  3  6  2  0  0  0  0
  7  4  2  0  0  0  0
  5  8  2  0  0  0  0
  5  9  1  0  0  0  0
  6  7  1  0  0  0  0
M  END
>  <Name>
Ethanone, 1-(1-methyl-1H-pyrrol-2-yl)-

>  <IGC50>
2.31

>  <CAS>
932-16-1

>  <SET>
ws

>  <Species>
Tetrahymena pyriformis

>  <Test duration>
48h

$$$$

  Mrv1808 07152009202D          

  9  8  0  0  0  0            999 V2000
    2.1451    1.2375    0.0000 O   0  0  0  0  0  0  0  0  0  0  0  0
    1.4438    0.8250    0.0000 C   0  0  0  0  0  0  0  0  0  0  0  0
    2.8464    0.8250    0.0000 C   0  0  0  0  0  0  0  0  0  0  0  0
    0.7013    1.2375    0.0000 C   0  0  0  0  0  0  0  0  0  0  0  0
    1.4438    0.0000    0.0000 O   0  0  0  0  0  0  0  0  0  0  0  0
    3.5889    1.2375    0.0000 C   0  0  0  0  0  0  0  0  0  0  0  0
    0.0000    0.8250    0.0000 C   0  0  0  0  0  0  0  0  0  0  0  0
    3.5889    2.0625    0.0000 C   0  0  0  0  0  0  0  0  0  0  0  0
    4.2902    0.8250    0.0000 C   0  0  0  0  0  0  0  0  0  0  0  0
  1  2  1  0  0  0  0
  1  3  1  0  0  0  0
  2  4  1  0  0  0  0
  2  5  2  0  0  0  0
  3  6  1  0  0  0  0
  4  7  1  0  0  0  0
  6  8  1  0  0  0  0
  6  9  1  0  0  0  0
M  END
>  <Name>
Propanoic acid, 2-methylpropyl ester

>  <IGC50>
2.307

>  <CAS>
540-42-1

>  <SET>
ws

>  <Species>
Tetrahymena pyriformis

>  <Test duration>
48h

$$$$

  Mrv1808 07152009202D          

  8  7  0  0  0  0            999 V2000
    0.6863    0.8579    0.0000 C   0  0  0  0  0  0  0  0  0  0  0  0
    1.4584    1.2438    0.0000 C   0  0  0  0  0  0  0  0  0  0  0  0
    0.0000    1.2438    0.0000 Br  0  0  0  0  0  0  0  0  0  0  0  0
    2.1875    0.8579    0.0000 C   0  0  0  0  0  0  0  0  0  0  0  0
    2.9167    1.2438    0.0000 C   0  0  0  0  0  0  0  0  0  0  0  0
    3.6888    0.8579    0.0000 C   0  0  0  0  0  0  0  0  0  0  0  0
    4.4179    1.2438    0.0000 O   0  0  0  0  0  0  0  0  0  0  0  0
    3.6459    0.0000    0.0000 O   0  0  0  0  0  0  0  0  0  0  0  0
  1  2  1  0  0  0  0
  1  3  1  0  0  0  0
  2  4  1  0  0  0  0
  4  5  1  0  0  0  0
  5  6  1  0  0  0  0
  6  7  1  0  0  0  0
  6  8  2  0  0  0  0
M  END
>  <Name>
Pentanoic acid, 5-bromo-

>  <IGC50>
2.307

>  <CAS>
2067-33-6

>  <SET>
ws

>  <Species>
Tetrahymena pyriformis

>  <Test duration>
48h

$$$$

  Mrv1808 07152009202D          

  9  8  0  0  0  0            999 V2000
    0.0000    0.0000    0.0000 C   0  0  0  0  0  0  0  0  0  0  0  0
    0.7838   -0.2613    0.0000 C   0  0  0  0  0  0  0  0  0  0  0  0
    0.9437   -1.0724    0.0000 O   0  0  0  0  0  0  0  0  0  0  0  0
    1.7197   -1.3337    0.0000 S   0  0  0  0  0  0  0  0  0  0  0  0
    2.4997   -1.5989    0.0000 O   0  0  0  0  0  0  0  0  0  0  0  0
    1.4585   -2.1097    0.0000 O   0  0  0  0  0  0  0  0  0  0  0  0
    1.9888   -0.5537    0.0000 O   0  0  0  0  0  0  0  0  0  0  0  0
    3.1158   -1.0568    0.0000 C   0  0  0  0  0  0  0  0  0  0  0  0
    3.8996   -1.3142    0.0000 C   0  0  0  0  0  0  0  0  0  0  0  0
  1  2  1  0  0  0  0
  2  3  1  0  0  0  0
  3  4  1  0  0  0  0
  5  4  1  0  0  0  0
  6  4  2  0  0  0  0
  7  4  2  0  0  0  0
  8  5  1  0  0  0  0
  8  9  1  0  0  0  0
M  END
>  <Name>
Sulfuric acid, diethyl ester

>  <IGC50>
2.302

>  <CAS>
64-67-5

>  <SET>
ws

>  <Species>
Tetrahymena pyriformis

>  <Test duration>
48h

$$$$

  Mrv1808 07152009202D          

  6  5  0  0  0  0            999 V2000
    0.4125    0.7837    0.0000 C   0  0  0  0  0  0  0  0  0  0  0  0
    1.2787    0.7837    0.0000 C   0  0  0  0  0  0  0  0  0  0  0  0
    0.0000    0.0825    0.0000 C   0  0  0  0  0  0  0  0  0  0  0  0
    1.2787    1.6087    0.0000 C   0  0  0  0  0  0  0  0  0  0  0  0
    1.2787    0.0000    0.0000 C   0  0  0  0  0  0  0  0  0  0  0  0
    2.1037    0.7837    0.0000 N   0  0  0  0  0  0  0  0  0  0  0  0
  1  2  1  0  0  0  0
  1  3  1  0  0  0  0
  2  4  1  0  0  0  0
  2  5  1  0  0  0  0
  2  6  1  0  0  0  0
M  END
>  <Name>
2-Butanamine, 2-methyl-

>  <IGC50>
2.302

>  <CAS>
594-39-8

>  <SET>
ws

>  <Species>
Tetrahymena pyriformis

>  <Test duration>
48h

$$$$

  Mrv1808 07152009203D          

 11 11  0  0  0  0            999 V2000
   -1.2085   -1.2624    0.0027 C   0  0  0  0  0  0  0  0  0  0  0  0
    0.2194   -1.2183    0.0015 C   0  0  0  0  0  0  0  0  0  0  0  0
   -1.9539   -0.1148    0.0016 C   0  0  0  0  0  0  0  0  0  0  0  0
    0.8653   -0.0079   -0.0001 C   0  0  0  0  0  0  0  0  0  0  0  0
    0.9351   -2.5190   -0.0035 C   0  0  0  0  0  0  0  0  0  0  0  0
   -3.4430   -0.1359    0.0002 C   0  0  0  0  0  0  0  0  0  0  0  0
   -1.3179    1.1275    0.0000 N   0  0  0  0  0  0  0  0  0  0  0  0
    0.1075    1.2442   -0.0009 C   0  0  0  0  0  0  0  0  0  0  0  0
    2.2818    0.0901   -0.0011 C   0  0  0  0  0  0  0  0  0  0  0  0
    0.5332    2.3920   -0.0022 O   0  0  0  0  0  0  0  0  0  0  0  0
    3.4390    0.1775    0.0040 N   0  0  0  0  0  0  0  0  0  0  0  0
  1  2  1  0  0  0  0
  3  1  2  0  0  0  0
  2  4  2  0  0  0  0
  2  5  1  0  0  0  0
  3  6  1  0  0  0  0
  7  3  1  0  0  0  0
  4  8  1  0  0  0  0
  4  9  1  0  0  0  0
  8  7  1  0  0  0  0
  8 10  2  0  0  0  0
  9 11  3  0  0  0  0
M  END
>  <Name>
3-Pyridinecarbonitrile, 1,2-dihydro-4,6-dimethyl-2-oxo-

>  <IGC50>
2.3

>  <CAS>
769-28-8

>  <SET>
ws

>  <Species>
Tetrahymena pyriformis

>  <Test duration>
48h

$$$$

  Mrv1808 07152009202D          

 11 11  0  0  0  0            999 V2000
    2.4677    0.7110    0.0000 C   0  0  0  0  0  0  0  0  0  0  0  0
    1.6731    0.7110    0.0000 C   0  0  0  0  0  0  0  0  0  0  0  0
    2.8860    1.4221    0.0000 C   0  0  0  0  0  0  0  0  0  0  0  0
    2.8860    0.0000    0.0000 O   0  0  0  0  0  0  0  0  0  0  0  0
    1.2548    1.4221    0.0000 C   0  0  0  0  0  0  0  0  0  0  0  0
    2.4260    2.1331    0.0000 C   0  0  0  0  0  0  0  0  0  0  0  0
    3.7225    1.4221    0.0000 O   0  0  0  0  0  0  0  0  0  0  0  0
    3.7225    0.0000    0.0000 C   0  0  0  0  0  0  0  0  0  0  0  0
    1.6313    2.1331    0.0000 C   0  0  0  0  0  0  0  0  0  0  0  0
    0.4183    1.4221    0.0000 C   0  0  0  0  0  0  0  0  0  0  0  0
    0.0000    0.7110    0.0000 O   0  0  0  0  0  0  0  0  0  0  0  0
  2  1  2  0  0  0  0
  1  3  1  0  0  0  0
  1  4  1  0  0  0  0
  5  2  1  0  0  0  0
  3  6  2  0  0  0  0
  3  7  1  0  0  0  0
  4  8  1  0  0  0  0
  9  5  2  0  0  0  0
  5 10  1  0  0  0  0
  6  9  1  0  0  0  0
 10 11  1  0  0  0  0
M  END
>  <Name>
Benzenemethanol, 4-hydroxy-3-methoxy-

>  <IGC50>
2.3

>  <CAS>
498-00-0

>  <SET>
ws

>  <Species>
Tetrahymena pyriformis

>  <Test duration>
48h

$$$$

  Mrv1808 07152009202D          

  5  4  0  0  0  0            999 V2000
    0.0000   -0.4118    0.0000 N   0  0  0  0  0  0  0  0  0  0  0  0
    0.7149    0.0000    0.0000 C   0  0  0  0  0  0  0  0  0  0  0  0
    1.4298   -0.4118    0.0000 C   0  0  0  0  0  0  0  0  0  0  0  0
    2.1447    0.0000    0.0000 C   0  0  0  0  0  0  0  0  0  0  0  0
    2.8595   -0.4118    0.0000 N   0  0  0  0  0  0  0  0  0  0  0  0
  1  2  1  0  0  0  0
  2  3  1  0  0  0  0
  3  4  1  0  0  0  0
  4  5  1  0  0  0  0
M  END
>  <Name>
Trimethylenediamine

>  <IGC50>
2.296

>  <CAS>
109-76-2

>  <SET>
ws

>  <Species>
Tetrahymena pyriformis

>  <Test duration>
48h

$$$$

  Mrv1808 07152009202D          

  8  7  0  0  0  0            999 V2000
    0.0000   -2.1446    0.0000 C   0  0  0  0  0  0  0  0  0  0  0  0
    0.8264   -2.1446    0.0000 C   0  0  0  0  0  0  0  0  0  0  0  0
    1.2381   -2.8595    0.0000 C   0  0  0  0  0  0  0  0  0  0  0  0
    1.2381   -1.4298    0.0000 C   0  0  0  0  0  0  0  0  0  0  0  0
    2.0645   -1.4298    0.0000 O   0  0  0  0  0  0  0  0  0  0  0  0
    0.8264   -0.7148    0.0000 C   0  0  0  0  0  0  0  0  0  0  0  0
    0.0000   -0.7148    0.0000 C   0  0  0  0  0  0  0  0  0  0  0  0
    1.2381    0.0000    0.0000 C   0  0  0  0  0  0  0  0  0  0  0  0
  1  2  1  0  0  0  0
  2  3  1  0  0  0  0
  2  4  1  0  0  0  0
  4  5  1  0  0  0  0
  4  6  1  0  0  0  0
  6  7  1  0  0  0  0
  6  8  1  0  0  0  0
M  END
>  <Name>
3-Pentanol, 2,4-dimethyl-

>  <IGC50>
2.295

>  <CAS>
600-36-2

>  <SET>
ws

>  <Species>
Tetrahymena pyriformis

>  <Test duration>
48h

$$$$

  Mrv1808 07152009202D          

  7  6  0  0  0  0            999 V2000
    2.1446    0.0000    0.0000 O   0  0  0  0  0  0  0  0  0  0  0  0
    2.1446   -0.8264    0.0000 C   0  0  0  0  0  0  0  0  0  0  0  0
    2.8595   -1.2382    0.0000 O   0  0  0  0  0  0  0  0  0  0  0  0
    1.4298   -1.2382    0.0000 C   0  0  0  0  0  0  0  0  0  0  0  0
    0.7148   -0.8264    0.0000 C   0  0  0  0  0  0  0  0  0  0  0  0
    0.0000   -1.2382    0.0000 O   0  0  0  0  0  0  0  0  0  0  0  0
    0.7148    0.0000    0.0000 O   0  0  0  0  0  0  0  0  0  0  0  0
  1  2  2  0  0  0  0
  2  3  1  0  0  0  0
  2  4  1  0  0  0  0
  4  5  1  0  0  0  0
  5  6  1  0  0  0  0
  5  7  2  0  0  0  0
M  END
>  <Name>
Propanedioic acid

>  <IGC50>
2.291

>  <CAS>
141-82-2

>  <SET>
ws

>  <Species>
Tetrahymena pyriformis

>  <Test duration>
48h

$$$$

  Mrv1808 07152009202D          

  6  5  0  0  0  0            999 V2000
    2.0614   -0.7135    0.0000 C   0  0  0  0  0  0  0  0  0  0  0  0
    1.2364   -0.7135    0.0000 C   0  0  0  0  0  0  0  0  0  0  0  0
    0.8250    0.0000    0.0000 C   0  0  0  0  0  0  0  0  0  0  0  0
    0.8250   -1.4292    0.0000 C   0  0  0  0  0  0  0  0  0  0  0  0
    1.2364   -2.1428    0.0000 C   0  0  0  0  0  0  0  0  0  0  0  0
    0.0000   -1.4292    0.0000 N   0  0  0  0  0  0  0  0  0  0  0  0
  1  2  1  0  0  0  0
  2  3  1  0  0  0  0
  2  4  1  0  0  0  0
  4  5  1  0  0  0  0
  4  6  1  0  0  0  0
M  END
>  <Name>
Propylamine, 1,2-dimethyl-

>  <IGC50>
2.291

>  <CAS>
598-74-3

>  <SET>
ws

>  <Species>
Tetrahymena pyriformis

>  <Test duration>
48h

$$$$

  Mrv1808 07152009202D          

  7  7  0  0  0  0            999 V2000
    1.3613    0.5363    0.0000 C   0  0  0  0  0  0  0  0  0  0  0  0
    0.7012    0.0413    0.0000 O   0  0  0  0  0  0  0  0  0  0  0  0
    1.1137    1.3200    0.0000 C   0  0  0  0  0  0  0  0  0  0  0  0
    2.1450    0.2475    0.0000 C   0  0  0  0  0  0  0  0  0  0  0  0
    0.0000    0.5775    0.0000 C   0  0  0  0  0  0  0  0  0  0  0  0
    0.2887    1.3200    0.0000 C   0  0  0  0  0  0  0  0  0  0  0  0
    2.8462    0.0000    0.0000 N   0  0  0  0  0  0  0  0  0  0  0  0
  1  2  1  0  0  0  0
  3  1  2  0  0  0  0
  1  4  1  0  0  0  0
  2  5  1  0  0  0  0
  6  3  1  0  0  0  0
  4  7  3  0  0  0  0
  5  6  2  0  0  0  0
M  END
>  <Name>
furan-2-carbonitrile

>  <IGC50>
2.29

>  <CAS>
617-90-3

>  <SET>
ws

>  <Species>
Tetrahymena pyriformis

>  <Test duration>
48h

$$$$

  Mrv1808 07152009202D          

  7  7  0  0  0  0            999 V2000
    0.0000    1.2129    0.0000 C   0  0  0  0  0  0  0  0  0  0  0  0
    0.7528    1.6312    0.0000 C   0  0  0  0  0  0  0  0  0  0  0  0
    0.0000    0.4183    0.0000 C   0  0  0  0  0  0  0  0  0  0  0  0
    1.4639    1.2129    0.0000 C   0  0  0  0  0  0  0  0  0  0  0  0
    0.7528    0.0000    0.0000 N   0  0  0  0  0  0  0  0  0  0  0  0
    1.4639    0.4183    0.0000 C   0  0  0  0  0  0  0  0  0  0  0  0
    2.1331    1.6730    0.0000 Cl  0  0  0  0  0  0  0  0  0  0  0  0
  1  2  2  0  0  0  0
  3  1  1  0  0  0  0
  2  4  1  0  0  0  0
  5  3  2  0  0  0  0
  4  6  2  0  0  0  0
  4  7  1  0  0  0  0
  6  5  1  0  0  0  0
M  END
>  <Name>
Pyridine, 3-chloro-

>  <IGC50>
2.29

>  <CAS>
626-60-8

>  <SET>
ws

>  <Species>
Tetrahymena pyriformis

>  <Test duration>
48h

$$$$

  Mrv1808 07152009202D          

 12 12  0  0  0  0            999 V2000
    2.4722   -2.1434    0.0000 C   0  0  0  0  0  0  0  0  0  0  0  0
    2.8848   -2.8559    0.0000 N   0  0  0  0  0  0  0  0  0  0  0  0
    2.8848   -1.4279    0.0000 O   0  0  0  0  0  0  0  0  0  0  0  0
    1.6472   -2.1434    0.0000 C   0  0  0  0  0  0  0  0  0  0  0  0
    1.2376   -2.8559    0.0000 C   0  0  0  0  0  0  0  0  0  0  0  0
    1.2376   -1.4279    0.0000 C   0  0  0  0  0  0  0  0  0  0  0  0
    0.4125   -2.8559    0.0000 C   0  0  0  0  0  0  0  0  0  0  0  0
    0.4125   -1.4279    0.0000 C   0  0  0  0  0  0  0  0  0  0  0  0
    1.6472   -0.7154    0.0000 N   0  3  0  0  0  0  0  0  0  0  0  0
    0.0000   -2.1434    0.0000 C   0  0  0  0  0  0  0  0  0  0  0  0
    1.2376    0.0000    0.0000 O   0  0  0  0  0  0  0  0  0  0  0  0
    2.4722   -0.7154    0.0000 O   0  5  0  0  0  0  0  0  0  0  0  0
  1  2  1  0  0  0  0
  1  3  2  0  0  0  0
  1  4  1  0  0  0  0
  4  5  2  0  0  0  0
  4  6  1  0  0  0  0
  5  7  1  0  0  0  0
  8  6  2  0  0  0  0
  6  9  1  0  0  0  0
  7 10  2  0  0  0  0
 10  8  1  0  0  0  0
  9 11  2  0  0  0  0
  9 12  1  0  0  0  0
M  CHG  2   9   1  12  -1
M  END
>  <Name>
Benzamide, 2-nitro- (9CI)

>  <IGC50>
2.28

>  <CAS>
610-15-1

>  <SET>
ws

>  <Species>
Tetrahymena pyriformis

>  <Test duration>
48h

$$$$

  Mrv1808 07152009203D          

  9  8  0  0  0  0            999 V2000
    5.1742    2.6371    1.7257 C   0  0  0  0  0  0  0  0  0  0  0  0
    3.9312    1.9066    1.2679 C   0  0  0  0  0  0  0  0  0  0  0  0
    6.4504    2.0804    1.0929 C   0  0  2  0  0  0  0  0  0  0  0  0
    3.0197    1.7477    2.2704 O   0  0  0  0  0  0  0  0  0  0  0  0
    3.6682    1.4898    0.1564 O   0  0  0  0  0  0  0  0  0  0  0  0
    6.8309    0.7497    1.7208 C   0  0  0  0  0  0  0  0  0  0  0  0
    7.5829    3.0818    1.2600 C   0  0  0  0  0  0  0  0  0  0  0  0
    1.7803    1.1021    1.9728 C   0  0  0  0  0  0  0  0  0  0  0  0
    0.9628    1.1297    3.2499 C   0  0  0  0  0  0  0  0  0  0  0  0
  1  2  1  0  0  0  0
  1  3  1  0  0  0  0
  2  4  1  0  0  0  0
  2  5  2  0  0  0  0
  3  6  1  0  0  0  0
  3  7  1  0  0  0  0
  4  8  1  0  0  0  0
  8  9  1  0  0  0  0
M  END
>  <Name>
Butyric acid, 3-methyl-, ethyl ester (6CI,7CI,8CI)

>  <IGC50>
2.277

>  <CAS>
108-64-5

>  <SET>
ws

>  <Species>
Tetrahymena pyriformis

>  <Test duration>
48h

$$$$

  Mrv1808 07152009202D          

 11 11  0  0  0  0            999 V2000
    1.2787    0.0000    0.0000 C   0  0  0  0  0  0  0  0  0  0  0  0
    1.6913    0.7012    0.0000 C   0  0  0  0  0  0  0  0  0  0  0  0
    0.4537    0.0000    0.0000 C   0  0  0  0  0  0  0  0  0  0  0  0
    1.2375    1.4025    0.0000 C   0  0  0  0  0  0  0  0  0  0  0  0
    2.4750    0.7012    0.0000 O   0  0  0  0  0  0  0  0  0  0  0  0
    0.0000    0.7012    0.0000 C   0  0  0  0  0  0  0  0  0  0  0  0
    0.4125    1.4025    0.0000 C   0  0  0  0  0  0  0  0  0  0  0  0
    3.1350    0.3300    0.0000 C   0  0  0  0  0  0  0  0  0  0  0  0
    3.8362    0.7425    0.0000 C   0  0  0  0  0  0  0  0  0  0  0  0
    3.8362    1.5675    0.0000 O   0  0  0  0  0  0  0  0  0  0  0  0
    4.5375    0.3713    0.0000 N   0  0  0  0  0  0  0  0  0  0  0  0
  2  1  2  0  0  0  0
  1  3  1  0  0  0  0
  4  2  1  0  0  0  0
  2  5  1  0  0  0  0
  3  6  2  0  0  0  0
  7  4  2  0  0  0  0
  5  8  1  0  0  0  0
  6  7  1  0  0  0  0
  8  9  1  0  0  0  0
  9 10  2  0  0  0  0
  9 11  1  0  0  0  0
M  END
>  <Name>
Acetamide, 2-phenoxy-

>  <IGC50>
2.27

>  <CAS>
621-88-5

>  <SET>
ws

>  <Species>
Tetrahymena pyriformis

>  <Test duration>
48h

$$$$

  Mrv1808 07152009202D          

  7  6  0  0  0  0            999 V2000
    1.4640    1.1294    0.0000 C   0  0  0  0  0  0  0  0  0  0  0  0
    0.7529    0.7111    0.0000 C   0  0  0  0  0  0  0  0  0  0  0  0
    2.1751    0.7111    0.0000 C   0  0  0  0  0  0  0  0  0  0  0  0
    0.3347    1.4221    0.0000 C   0  0  0  0  0  0  0  0  0  0  0  0
    1.1712    0.0000    0.0000 C   0  0  0  0  0  0  0  0  0  0  0  0
    0.0000    0.2928    0.0000 C   0  0  0  0  0  0  0  0  0  0  0  0
    2.9279    1.1294    0.0000 O   0  0  0  0  0  0  0  0  0  0  0  0
  1  2  1  0  0  0  0
  1  3  1  0  0  0  0
  2  4  1  0  0  0  0
  2  5  1  0  0  0  0
  2  6  1  0  0  0  0
  3  7  1  0  0  0  0
M  END
>  <Name>
1-Butanol, 3,3-dimethyl-

>  <IGC50>
2.263

>  <CAS>
624-95-3

>  <SET>
ws

>  <Species>
Tetrahymena pyriformis

>  <Test duration>
48h

$$$$

  Mrv1808 07152009202D          

  9  9  0  0  0  0            999 V2000
    1.2375    0.0000    0.0000 N   0  0  0  0  0  0  0  0  0  0  0  0
    1.6500   -0.7172    0.0000 C   0  0  0  0  0  0  0  0  0  0  0  0
    0.4125    0.0000    0.0000 C   0  0  0  0  0  0  0  0  0  0  0  0
    2.4788   -0.7172    0.0000 C   0  0  0  0  0  0  0  0  0  0  0  0
    1.2375   -1.4308    0.0000 C   0  0  0  0  0  0  0  0  0  0  0  0
    0.0000   -0.7172    0.0000 C   0  0  0  0  0  0  0  0  0  0  0  0
    2.8913   -1.4308    0.0000 C   0  0  0  0  0  0  0  0  0  0  0  0
    0.4125   -1.4308    0.0000 C   0  0  0  0  0  0  0  0  0  0  0  0
    3.7163   -1.4308    0.0000 N   0  0  0  0  0  0  0  0  0  0  0  0
  1  2  2  0  0  0  0
  1  3  1  0  0  0  0
  2  4  1  0  0  0  0
  2  5  1  0  0  0  0
  6  3  2  0  0  0  0
  4  7  1  0  0  0  0
  5  8  2  0  0  0  0
  8  6  1  0  0  0  0
  7  9  1  0  0  0  0
M  END
>  <Name>
2-pyridin-2-ylethanamine

>  <IGC50>
2.26

>  <CAS>
2706-56-1

>  <SET>
ws

>  <Species>
Tetrahymena pyriformis

>  <Test duration>
48h

$$$$

  Mrv1808 07152009202D          

  8  8  0  0  0  0            999 V2000
    1.2375   -1.4289    0.0000 N   0  0  0  0  0  0  0  0  0  0  0  0
    0.8250   -0.7161    0.0000 C   0  0  0  0  0  0  0  0  0  0  0  0
    2.0625   -1.4289    0.0000 C   0  0  0  0  0  0  0  0  0  0  0  0
    0.0000   -0.7161    0.0000 O   0  0  0  0  0  0  0  0  0  0  0  0
    1.2375    0.0000    0.0000 C   0  0  0  0  0  0  0  0  0  0  0  0
    2.4750   -0.7161    0.0000 C   0  0  0  0  0  0  0  0  0  0  0  0
    2.0625    0.0000    0.0000 C   0  0  0  0  0  0  0  0  0  0  0  0
    3.3001   -0.7161    0.0000 Cl  0  0  0  0  0  0  0  0  0  0  0  0
  1  2  2  0  0  0  0
  1  3  1  0  0  0  0
  2  4  1  0  0  0  0
  2  5  1  0  0  0  0
  6  3  2  0  0  0  0
  5  7  2  0  0  0  0
  7  6  1  0  0  0  0
  6  8  1  0  0  0  0
M  END
>  <Name>
5-Chloropyridin-2-ol

>  <IGC50>
2.25

>  <CAS>
4214-79-3

>  <SET>
ws

>  <Species>
Tetrahymena pyriformis

>  <Test duration>
48h

$$$$

  Mrv1808 07152009202D          

  7  6  0  0  0  0            999 V2000
    2.8113    0.4482    0.0000 C   0  0  0  0  0  0  0  0  0  0  0  0
    2.1187    0.0000    0.0000 C   0  0  0  0  0  0  0  0  0  0  0  0
    3.5447    0.0408    0.0000 C   0  0  0  0  0  0  0  0  0  0  0  0
    1.4261    0.4074    0.0000 C   0  0  0  0  0  0  0  0  0  0  0  0
    4.2373    0.4074    0.0000 C   0  0  0  0  0  0  0  0  0  0  0  0
    0.6926    0.0000    0.0000 C   0  0  0  0  0  0  0  0  0  0  0  0
    0.0000    0.4074    0.0000 O   0  0  0  0  0  0  0  0  0  0  0  0
  1  2  1  0  0  0  0
  1  3  2  0  0  0  0
  2  4  1  0  0  0  0
  3  5  1  0  0  0  0
  4  6  1  0  0  0  0
  6  7  1  0  0  0  0
M  END
>  <Name>
4-Hexen-1-ol, (4E)-

>  <IGC50>
2.246

>  <CAS>
928-92-7

>  <SET>
ws

>  <Species>
Tetrahymena pyriformis

>  <Test duration>
48h

$$$$

  Mrv1808 07152009202D          

  6  5  0  0  0  0            999 V2000
    2.0837    1.2021    0.0000 C   0  0  0  0  0  0  0  0  0  0  0  0
    1.4025    0.8014    0.0000 N   0  0  0  0  0  0  0  0  0  0  0  0
    2.8048    0.8014    0.0000 C   0  0  0  0  0  0  0  0  0  0  0  0
    0.7213    1.2021    0.0000 C   0  0  0  0  0  0  0  0  0  0  0  0
    1.4025    0.0000    0.0000 C   0  0  0  0  0  0  0  0  0  0  0  0
    0.0000    0.8014    0.0000 C   0  0  0  0  0  0  0  0  0  0  0  0
  1  2  1  0  0  0  0
  1  3  1  0  0  0  0
  2  4  1  0  0  0  0
  2  5  1  0  0  0  0
  4  6  1  0  0  0  0
M  END
>  <Name>
Ethanamine, N-ethyl-N-methyl-

>  <IGC50>
2.244

>  <CAS>
616-39-7

>  <SET>
ws

>  <Species>
Tetrahymena pyriformis

>  <Test duration>
48h

$$$$

  Mrv1808 07152009202D          

  6  6  0  0  0  0            999 V2000
    0.0000   -0.5806    0.0000 C   0  0  0  0  0  0  0  0  0  0  0  0
    0.8189   -0.5806    0.0000 C   0  0  0  0  0  0  0  0  0  0  0  0
    1.4024   -1.1639    0.0000 C   0  0  0  0  0  0  0  0  0  0  0  0
    1.4024    0.0000    0.0000 O   0  0  0  0  0  0  0  0  0  0  0  0
    1.9857   -0.5806    0.0000 C   0  0  0  0  0  0  0  0  0  0  0  0
    2.8047   -0.5806    0.0000 O   0  0  0  0  0  0  0  0  0  0  0  0
  1  2  1  0  0  0  0
  2  3  1  0  0  0  0
  2  4  1  0  0  0  0
  3  5  1  0  0  0  0
  4  5  1  0  0  0  0
  5  6  2  0  0  0  0
M  END
>  <Name>
(+/-)-beta-butyrolactone

>  <IGC50>
2.241

>  <CAS>
36536-46-6

>  <SET>
ws

>  <Species>
Tetrahymena pyriformis

>  <Test duration>
48h

$$$$

  Mrv1808 07152009202D          

  7  7  0  0  0  0            999 V2000
    1.0352    0.0000    0.0000 C   0  0  0  0  0  0  0  0  0  0  0  0
    0.2485    0.0000    0.0000 C   0  0  0  0  0  0  0  0  0  0  0  0
    1.2836    0.7867    0.0000 C   0  0  0  0  0  0  0  0  0  0  0  0
    0.0000    0.7867    0.0000 C   0  0  0  0  0  0  0  0  0  0  0  0
    0.6625    1.2422    0.0000 S   0  0  0  0  0  0  0  0  0  0  0  0
    2.0703    1.0352    0.0000 C   0  0  0  0  0  0  0  0  0  0  0  0
    2.8570    1.3250    0.0000 N   0  0  0  0  0  0  0  0  0  0  0  0
  1  2  1  0  0  0  0
  3  1  2  0  0  0  0
  2  4  2  0  0  0  0
  5  3  1  0  0  0  0
  3  6  1  0  0  0  0
  4  5  1  0  0  0  0
  6  7  3  0  0  0  0
M  END
>  <Name>
thiophene-2-carbonitrile

>  <IGC50>
2.24

>  <CAS>
1003-31-2

>  <SET>
ws

>  <Species>
Tetrahymena pyriformis

>  <Test duration>
48h

$$$$

  Mrv1808 07152009202D          

 10 10  0  0  0  0            999 V2000
    2.9960    0.7815    0.0000 C   0  0  0  0  0  0  0  0  0  0  0  0
    2.1710    0.7815    0.0000 C   0  0  0  0  0  0  0  0  0  0  0  0
    3.4301    1.4762    0.0000 C   0  0  0  0  0  0  0  0  0  0  0  0
    1.7368    1.4762    0.0000 C   0  0  0  0  0  0  0  0  0  0  0  0
    2.9960    2.2578    0.0000 C   0  0  0  0  0  0  0  0  0  0  0  0
    4.2985    1.4762    0.0000 N   0  0  0  0  0  0  0  0  0  0  0  0
    2.1710    2.2578    0.0000 C   0  0  0  0  0  0  0  0  0  0  0  0
    0.8684    1.4762    0.0000 C   0  0  0  0  0  0  0  0  0  0  0  0
    0.4776    0.7815    0.0000 C   0  0  0  0  0  0  0  0  0  0  0  0
    0.0000    0.0000    0.0000 N   0  0  0  0  0  0  0  0  0  0  0  0
  2  1  2  0  0  0  0
  1  3  1  0  0  0  0
  4  2  1  0  0  0  0
  3  5  2  0  0  0  0
  3  6  1  0  0  0  0
  7  4  2  0  0  0  0
  4  8  1  0  0  0  0
  5  7  1  0  0  0  0
  8  9  1  0  0  0  0
  9 10  3  0  0  0  0
M  END
>  <Name>
4-Aminophenylacetonitrile

>  <IGC50>
2.24

>  <CAS>
3544-25-0

>  <SET>
ws

>  <Species>
Tetrahymena pyriformis

>  <Test duration>
48h

$$$$

  Mrv1808 07152009202D          

  8  7  0  0  0  0            999 V2000
    2.1456    0.0000    0.0000 S   0  0  0  0  0  0  0  0  0  0  0  0
    2.1456   -0.8260    0.0000 C   0  0  0  0  0  0  0  0  0  0  0  0
    2.8608   -1.2373    0.0000 N   0  0  0  0  0  0  0  0  0  0  0  0
    1.4304   -1.2373    0.0000 N   0  0  0  0  0  0  0  0  0  0  0  0
    3.5759   -0.8260    0.0000 C   0  0  0  0  0  0  0  0  0  0  0  0
    0.7152   -0.8260    0.0000 C   0  0  0  0  0  0  0  0  0  0  0  0
    3.5759    0.0000    0.0000 C   0  0  0  0  0  0  0  0  0  0  0  0
    0.0000   -1.2373    0.0000 C   0  0  0  0  0  0  0  0  0  0  0  0
  1  2  2  0  0  0  0
  2  3  1  0  0  0  0
  2  4  1  0  0  0  0
  3  5  1  0  0  0  0
  4  6  1  0  0  0  0
  5  7  1  0  0  0  0
  6  8  1  0  0  0  0
M  END
>  <Name>
Urea, 1,3-diethyl-2-thio-

>  <IGC50>
2.24

>  <CAS>
105-55-5

>  <SET>
ws

>  <Species>
Tetrahymena pyriformis

>  <Test duration>
48h

$$$$

  Mrv1808 07152009202D          

  7  7  0  0  0  0            999 V2000
    1.2387    0.0000    0.0000 C   0  0  0  0  0  0  0  0  0  0  0  0
    2.0637    0.0000    0.0000 C   0  0  0  0  0  0  0  0  0  0  0  0
    0.8250   -0.7135    0.0000 C   0  0  0  0  0  0  0  0  0  0  0  0
    2.4775   -0.7135    0.0000 C   0  0  0  0  0  0  0  0  0  0  0  0
    1.2387   -1.4295    0.0000 C   0  0  0  0  0  0  0  0  0  0  0  0
    0.0000   -0.7135    0.0000 O   0  0  0  0  0  0  0  0  0  0  0  0
    2.0637   -1.4295    0.0000 C   0  0  0  0  0  0  0  0  0  0  0  0
  1  2  1  0  0  0  0
  1  3  1  0  0  0  0
  2  4  1  0  0  0  0
  5  3  1  0  0  0  0
  3  6  1  0  0  0  0
  4  7  1  0  0  0  0
  7  5  1  0  0  0  0
M  END
>  <Name>
Cyclohexanol

>  <IGC50>
2.234

>  <CAS>
108-93-0

>  <SET>
ws

>  <Species>
Tetrahymena pyriformis

>  <Test duration>
48h

$$$$

  Mrv1808 07152009202D          

 10  9  0  0  0  0            999 V2000
    6.4388    0.0000    0.0000 N   0  0  0  0  0  0  0  0  0  0  0  0
    5.7241   -0.4121    0.0000 C   0  0  0  0  0  0  0  0  0  0  0  0
    5.0094   -0.8242    0.0000 C   0  0  0  0  0  0  0  0  0  0  0  0
    4.2947   -0.4121    0.0000 C   0  0  0  0  0  0  0  0  0  0  0  0
    3.5800   -0.8242    0.0000 C   0  0  0  0  0  0  0  0  0  0  0  0
    2.8588   -0.4121    0.0000 C   0  0  0  0  0  0  0  0  0  0  0  0
    2.1441   -0.8242    0.0000 C   0  0  0  0  0  0  0  0  0  0  0  0
    1.4294   -0.4121    0.0000 C   0  0  0  0  0  0  0  0  0  0  0  0
    0.7147   -0.8242    0.0000 C   0  0  0  0  0  0  0  0  0  0  0  0
    0.0000   -1.2363    0.0000 N   0  0  0  0  0  0  0  0  0  0  0  0
  1  2  3  0  0  0  0
  2  3  1  0  0  0  0
  3  4  1  0  0  0  0
  4  5  1  0  0  0  0
  5  6  1  0  0  0  0
  6  7  1  0  0  0  0
  7  8  1  0  0  0  0
  8  9  1  0  0  0  0
  9 10  3  0  0  0  0
M  END
>  <Name>
Octanedinitrile

>  <IGC50>
2.23

>  <CAS>
629-40-3

>  <SET>
ws

>  <Species>
Tetrahymena pyriformis

>  <Test duration>
48h

$$$$

  Mrv1808 07152009203D          

  9  9  0  0  0  0            999 V2000
    0.8901   -1.0867   -0.0015 O   0  0  0  0  0  0  0  0  0  0  0  0
    0.4722    0.1824   -0.0004 C   0  0  0  0  0  0  0  0  0  0  0  0
    2.2465   -1.0035    0.0002 C   0  0  0  0  0  0  0  0  0  0  0  0
   -0.9874    0.3812   -0.0023 C   0  0  0  0  0  0  0  0  0  0  0  0
    1.4655    1.0859    0.0020 C   0  0  0  0  0  0  0  0  0  0  0  0
    2.6500    0.3114    0.0025 C   0  0  0  0  0  0  0  0  0  0  0  0
   -1.4976    1.5034   -0.0026 O   0  0  0  0  0  0  0  0  0  0  0  0
   -1.8788   -0.8578   -0.0049 C   0  0  0  0  0  0  0  0  0  0  0  0
   -3.3607   -0.5164    0.0071 C   0  0  0  0  0  0  0  0  0  0  0  0
  1  2  1  0  0  0  0
  1  3  1  0  0  0  0
  4  2  1  0  0  0  0
  2  5  2  0  0  0  0
  6  3  2  0  0  0  0
  7  4  2  0  0  0  0
  8  4  1  0  0  0  0
  5  6  1  0  0  0  0
  8  9  1  0  0  0  0
M  END
>  <Name>
1-(furan-2-yl)propan-1-one

>  <IGC50>
2.23

>  <CAS>
3194-15-8

>  <SET>
ws

>  <Species>
Tetrahymena pyriformis

>  <Test duration>
48h

$$$$

  Mrv1808 07152009202D          

  7  6  0  0  0  0            999 V2000
    0.0000    0.7949    0.0000 Br  0  0  0  0  0  0  0  0  0  0  0  0
    0.7112    1.2132    0.0000 C   0  0  0  0  0  0  0  0  0  0  0  0
    1.4642    0.7949    0.0000 C   0  0  0  0  0  0  0  0  0  0  0  0
    2.1335    1.2132    0.0000 C   0  0  0  0  0  0  0  0  0  0  0  0
    2.8446    0.7949    0.0000 C   0  0  0  0  0  0  0  0  0  0  0  0
    3.5977    1.2132    0.0000 O   0  0  0  0  0  0  0  0  0  0  0  0
    2.8446    0.0000    0.0000 O   0  0  0  0  0  0  0  0  0  0  0  0
  1  2  1  0  0  0  0
  2  3  1  0  0  0  0
  3  4  1  0  0  0  0
  4  5  1  0  0  0  0
  5  6  1  0  0  0  0
  5  7  2  0  0  0  0
M  END
>  <Name>
Butanoic acid, 4-bromo-

>  <IGC50>
2.229

>  <CAS>
2623-87-2

>  <SET>
ws

>  <Species>
Tetrahymena pyriformis

>  <Test duration>
48h

$$$$

  Mrv1808 07152009202D          

 11 10  0  0  0  0            999 V2000
    4.9401   -1.4277    0.0000 C   0  0  0  0  0  0  0  0  0  0  0  0
    4.5302   -0.7163    0.0000 C   0  0  0  0  0  0  0  0  0  0  0  0
    4.9401    0.0000    0.0000 C   0  0  0  0  0  0  0  0  0  0  0  0
    3.7052   -0.7163    0.0000 C   0  0  0  0  0  0  0  0  0  0  0  0
    3.2951    0.0000    0.0000 O   0  0  0  0  0  0  0  0  0  0  0  0
    3.2951   -1.4277    0.0000 O   0  0  0  0  0  0  0  0  0  0  0  0
    2.4701   -1.4277    0.0000 C   0  0  0  0  0  0  0  0  0  0  0  0
    2.0601   -0.7163    0.0000 C   0  0  0  0  0  0  0  0  0  0  0  0
    1.2351   -0.7163    0.0000 O   0  0  0  0  0  0  0  0  0  0  0  0
    0.8250    0.0000    0.0000 C   0  0  0  0  0  0  0  0  0  0  0  0
    0.0000    0.0000    0.0000 C   0  0  0  0  0  0  0  0  0  0  0  0
  1  2  2  0  0  0  0
  2  3  1  0  0  0  0
  2  4  1  0  0  0  0
  4  5  2  0  0  0  0
  4  6  1  0  0  0  0
  6  7  1  0  0  0  0
  7  8  1  0  0  0  0
  8  9  1  0  0  0  0
  9 10  1  0  0  0  0
 10 11  1  0  0  0  0
M  END
>  <Name>
2-Propenoic acid, 2-methyl-, 2-ethoxyethyl ester

>  <IGC50>
2.22

>  <CAS>
2370-63-0

>  <SET>
ws

>  <Species>
Tetrahymena pyriformis

>  <Test duration>
48h

$$$$

  Mrv1808 07152009202D          

  7  6  0  0  0  0            999 V2000
    0.0000    0.0825    0.0000 Cl  0  0  0  0  0  0  0  0  0  0  0  0
    0.4125    0.7838    0.0000 C   0  0  0  0  0  0  0  0  0  0  0  0
    1.2375    0.7838    0.0000 C   0  0  0  0  0  0  0  0  0  0  0  0
    1.2375    0.0000    0.0000 C   0  0  0  0  0  0  0  0  0  0  0  0
    1.2375    1.6088    0.0000 C   0  0  0  0  0  0  0  0  0  0  0  0
    2.0625    0.7838    0.0000 C   0  0  0  0  0  0  0  0  0  0  0  0
    2.4751    0.0825    0.0000 O   0  0  0  0  0  0  0  0  0  0  0  0
  1  2  1  0  0  0  0
  2  3  1  0  0  0  0
  3  4  1  0  0  0  0
  3  5  1  0  0  0  0
  3  6  1  0  0  0  0
  6  7  1  0  0  0  0
M  END
>  <Name>
1-Propanol, 3-chloro-2,2-dimethyl-

>  <IGC50>
2.218

>  <CAS>
13401-56-4

>  <SET>
ws

>  <Species>
Tetrahymena pyriformis

>  <Test duration>
48h

$$$$

  Mrv1808 07152009203D          

  9  8  0  0  0  0            999 V2000
   -0.8589   -0.5304   -0.4345 O   0  0  0  0  0  0  0  0  0  0  0  0
   -2.1227    0.0469   -0.0899 C   0  0  1  0  0  0  0  0  0  0  0  0
    0.2026    0.3194   -0.3932 C   0  0  0  0  0  0  0  0  0  0  0  0
   -3.2075   -1.0121   -0.2141 C   0  0  0  0  0  0  0  0  0  0  0  0
   -2.0456    0.6169    1.3182 C   0  0  0  0  0  0  0  0  0  0  0  0
    0.1887    1.5223   -0.6013 O   0  0  0  0  0  0  0  0  0  0  0  0
    1.3998   -0.4768   -0.0475 C   0  0  0  0  0  0  0  0  0  0  0  0
    2.5932    0.1217    0.0590 C   0  0  0  0  0  0  0  0  0  0  0  0
    3.8503   -0.6079    0.4032 C   0  0  0  0  0  0  0  0  0  0  0  0
  1  2  1  0  0  0  0
  1  3  1  0  0  0  0
  2  4  1  0  0  0  0
  2  5  1  0  0  0  0
  6  3  2  0  0  0  0
  3  7  1  0  0  0  0
  7  8  2  0  0  0  0
  8  9  1  0  0  0  0
M  END
>  <Name>
propan-2-yl but-2-enoate

>  <IGC50>
2.218

>  <CAS>
18060-77-0

>  <SET>
ws

>  <Species>
Tetrahymena pyriformis

>  <Test duration>
48h

$$$$

  Mrv1808 07152009202D          

  8  7  0  0  0  0            999 V2000
    2.8521    0.4075    0.0000 C   0  0  0  0  0  0  0  0  0  0  0  0
    2.1187    0.0000    0.0000 C   0  0  0  0  0  0  0  0  0  0  0  0
    3.5447    0.0000    0.0000 O   0  0  0  0  0  0  0  0  0  0  0  0
    1.4260    0.4075    0.0000 C   0  0  0  0  0  0  0  0  0  0  0  0
    4.2373    0.4482    0.0000 C   0  0  0  0  0  0  0  0  0  0  0  0
    0.7334    0.0000    0.0000 C   0  0  0  0  0  0  0  0  0  0  0  0
    4.9707    0.0408    0.0000 O   0  0  0  0  0  0  0  0  0  0  0  0
    0.0000    0.4075    0.0000 C   0  0  0  0  0  0  0  0  0  0  0  0
  1  2  1  0  0  0  0
  1  3  1  0  0  0  0
  2  4  1  0  0  0  0
  3  5  1  0  0  0  0
  4  6  1  0  0  0  0
  5  7  2  0  0  0  0
  6  8  1  0  0  0  0
M  END
>  <Name>
Formic acid, pentyl ester

>  <IGC50>
2.217

>  <CAS>
638-49-3

>  <SET>
ws

>  <Species>
Tetrahymena pyriformis

>  <Test duration>
48h

$$$$

  Mrv1808 07152009202D          

  9  9  0  0  0  0            999 V2000
    0.0000    0.0000    0.0000 N   0  0  0  0  0  0  0  0  0  0  0  0
    0.8249    0.0000    0.0000 C   0  0  0  0  0  0  0  0  0  0  0  0
    1.2374   -0.7172    0.0000 C   0  0  0  0  0  0  0  0  0  0  0  0
    2.0662   -0.7172    0.0000 N   0  0  0  0  0  0  0  0  0  0  0  0
    2.4786    0.0000    0.0000 C   0  0  0  0  0  0  0  0  0  0  0  0
    2.4786   -1.4307    0.0000 C   0  0  0  0  0  0  0  0  0  0  0  0
    3.3036    0.0000    0.0000 C   0  0  0  0  0  0  0  0  0  0  0  0
    3.3036   -1.4307    0.0000 C   0  0  0  0  0  0  0  0  0  0  0  0
    3.7161   -0.7172    0.0000 N   0  0  0  0  0  0  0  0  0  0  0  0
  1  2  1  0  0  0  0
  2  3  1  0  0  0  0
  3  4  1  0  0  0  0
  4  5  1  0  0  0  0
  4  6  1  0  0  0  0
  5  7  1  0  0  0  0
  8  6  1  0  0  0  0
  7  9  1  0  0  0  0
  9  8  1  0  0  0  0
M  END
>  <Name>
Piperazine, 1-(2-aminoethyl)-

>  <IGC50>
2.21

>  <CAS>
140-31-8

>  <SET>
ws

>  <Species>
Tetrahymena pyriformis

>  <Test duration>
48h

$$$$

  Mrv1808 07152009202D          

 11 11  0  0  0  0            999 V2000
    0.4183    0.8365    0.0000 C   0  0  0  0  0  0  0  0  0  0  0  0
    1.2548    0.8365    0.0000 S   0  0  0  0  0  0  0  0  0  0  0  0
    0.0000    0.1255    0.0000 C   0  0  0  0  0  0  0  0  0  0  0  0
    1.2548    1.6731    0.0000 O   0  0  0  0  0  0  0  0  0  0  0  0
    1.2548    0.0000    0.0000 O   0  0  0  0  0  0  0  0  0  0  0  0
    2.0914    0.8365    0.0000 C   0  0  0  0  0  0  0  0  0  0  0  0
    2.5097    1.5476    0.0000 C   0  0  0  0  0  0  0  0  0  0  0  0
    2.5097    0.1255    0.0000 C   0  0  0  0  0  0  0  0  0  0  0  0
    3.3462    1.5476    0.0000 C   0  0  0  0  0  0  0  0  0  0  0  0
    3.3462    0.1255    0.0000 C   0  0  0  0  0  0  0  0  0  0  0  0
    3.7645    0.8365    0.0000 C   0  0  0  0  0  0  0  0  0  0  0  0
  1  2  1  0  0  0  0
  1  3  1  0  0  0  0
  2  4  2  0  0  0  0
  2  5  2  0  0  0  0
  2  6  1  0  0  0  0
  7  6  2  0  0  0  0
  6  8  1  0  0  0  0
  9  7  1  0  0  0  0
  8 10  2  0  0  0  0
 11  9  2  0  0  0  0
 10 11  1  0  0  0  0
M  END
>  <Name>
(Ethylsulphonyl)benzene

>  <IGC50>
2.21

>  <CAS>
599-70-2

>  <SET>
ws

>  <Species>
Tetrahymena pyriformis

>  <Test duration>
48h

$$$$

  Mrv1808 07152009203D          

  9  8  0  0  0  0            999 V2000
   -0.5824    0.8808    0.1802 C   0  0  0  0  0  0  0  0  0  0  0  0
   -1.7625    0.2157    0.8744 C   0  0  0  0  0  0  0  0  0  0  0  0
   -0.5908    1.9404   -0.4107 O   0  0  0  0  0  0  0  0  0  0  0  0
    0.5674    0.1639    0.2997 O   0  0  0  0  0  0  0  0  0  0  0  0
   -2.3736   -0.7704    0.0117 C   0  0  0  0  0  0  0  0  0  0  0  0
    1.7494    0.6733   -0.3237 C   0  0  0  0  0  0  0  0  0  0  0  0
   -2.8654   -1.5669   -0.6711 N   0  0  0  0  0  0  0  0  0  0  0  0
    2.8631   -0.3024   -0.1392 C   0  0  0  0  0  0  0  0  0  0  0  0
    2.7364   -1.5891    0.1603 C   0  0  0  0  0  0  0  0  0  0  0  0
  1  2  1  0  0  0  0
  1  3  2  0  0  0  0
  1  4  1  0  0  0  0
  2  5  1  0  0  0  0
  4  6  1  0  0  0  0
  5  7  3  0  0  0  0
  6  8  1  0  0  0  0
  8  9  2  0  0  0  0
M  END
>  <Name>
Acetic acid, cyano-, 2-propenyl ester

>  <IGC50>
2.21

>  <CAS>
13361-32-5

>  <SET>
ws

>  <Species>
Tetrahymena pyriformis

>  <Test duration>
48h

$$$$

  Mrv1808 07152009202D          

  6  5  0  0  0  0            999 V2000
    1.6524    0.0000    0.0000 O   0  0  0  0  0  0  0  0  0  0  0  0
    1.2386   -0.7134    0.0000 C   0  0  0  0  0  0  0  0  0  0  0  0
    1.6524   -1.4294    0.0000 C   0  0  0  0  0  0  0  0  0  0  0  0
    0.4137   -0.7134    0.0000 C   0  0  0  0  0  0  0  0  0  0  0  0
    2.4774   -1.4294    0.0000 Cl  0  0  0  0  0  0  0  0  0  0  0  0
    0.0000   -1.4294    0.0000 Cl  0  0  0  0  0  0  0  0  0  0  0  0
  1  2  1  0  0  0  0
  2  3  1  0  0  0  0
  2  4  1  0  0  0  0
  3  5  1  0  0  0  0
  4  6  1  0  0  0  0
M  END
>  <Name>
2-Propanol, 1,3-dichloro-

>  <IGC50>
2.207

>  <CAS>
96-23-1

>  <SET>
ws

>  <Species>
Tetrahymena pyriformis

>  <Test duration>
48h

$$$$

  Mrv1808 07152009202D          

  5  4  0  0  0  0            999 V2000
    2.1446   -1.2374    0.0000 N   0  0  0  0  0  0  0  0  0  0  0  0
    1.4304   -0.8256    0.0000 C   0  0  0  0  0  0  0  0  0  0  0  0
    1.4304    0.0000    0.0000 O   0  0  0  0  0  0  0  0  0  0  0  0
    0.7142   -1.2374    0.0000 C   0  0  0  0  0  0  0  0  0  0  0  0
    0.0000   -0.8256    0.0000 C   0  0  0  0  0  0  0  0  0  0  0  0
  1  2  1  0  0  0  0
  2  3  2  0  0  0  0
  2  4  1  0  0  0  0
  4  5  2  0  0  0  0
M  END
>  <Name>
2-Propenamide

>  <IGC50>
2.193

>  <CAS>
79-06-1

>  <SET>
ws

>  <Species>
Tetrahymena pyriformis

>  <Test duration>
48h

$$$$

  Mrv1808 07152009202D          

  5  4  0  0  0  0            999 V2000
    0.0000    0.0413    0.0000 C   0  0  0  0  0  0  0  0  0  0  0  0
    0.7018    0.4541    0.0000 C   0  0  0  0  0  0  0  0  0  0  0  0
    1.4448    0.0413    0.0000 C   0  0  0  0  0  0  0  0  0  0  0  0
    2.1053    0.4541    0.0000 N   0  0  0  0  0  0  0  0  0  0  0  0
    2.8071    0.0000    0.0000 C   0  0  0  0  0  0  0  0  0  0  0  0
  1  2  1  0  0  0  0
  2  3  1  0  0  0  0
  3  4  1  0  0  0  0
  4  5  1  0  0  0  0
M  END
>  <Name>
N-Methyl-N-propylamine

>  <IGC50>
2.191

>  <CAS>
627-35-0

>  <SET>
ws

>  <Species>
Tetrahymena pyriformis

>  <Test duration>
48h

$$$$

  Mrv1808 07152009202D          

 10 10  0  0  0  0            999 V2000
    0.0000   -2.1403    0.0000 O   0  0  0  0  0  0  0  0  0  0  0  0
    0.4125   -1.4279    0.0000 C   0  0  0  0  0  0  0  0  0  0  0  0
    1.2375   -1.4279    0.0000 C   0  0  0  0  0  0  0  0  0  0  0  0
    0.0000   -0.7125    0.0000 O   0  0  0  0  0  0  0  0  0  0  0  0
    1.6471   -0.7125    0.0000 C   0  0  0  0  0  0  0  0  0  0  0  0
    1.6471   -2.1403    0.0000 C   0  0  0  0  0  0  0  0  0  0  0  0
    2.4721   -0.7125    0.0000 C   0  0  0  0  0  0  0  0  0  0  0  0
    2.4721   -2.1403    0.0000 C   0  0  0  0  0  0  0  0  0  0  0  0
    2.8846    0.0000    0.0000 O   0  0  0  0  0  0  0  0  0  0  0  0
    2.8846   -1.4279    0.0000 C   0  0  0  0  0  0  0  0  0  0  0  0
  1  2  2  0  0  0  0
  2  3  1  0  0  0  0
  2  4  1  0  0  0  0
  3  5  2  0  0  0  0
  3  6  1  0  0  0  0
  5  7  1  0  0  0  0
  8  6  2  0  0  0  0
  7  9  1  0  0  0  0
  7 10  2  0  0  0  0
 10  8  1  0  0  0  0
M  END
>  <Name>
3-hydroxybenzoic acid

>  <IGC50>
2.19

>  <CAS>
99-06-9

>  <SET>
ws

>  <Species>
Tetrahymena pyriformis

>  <Test duration>
48h

$$$$

  Mrv1808 07152009203D          

  8  8  0  0  0  0            999 V2000
   -1.1764    0.2906   -0.0008 C   0  0  0  0  0  0  0  0  0  0  0  0
   -1.2013   -1.1093   -0.0001 C   0  0  0  0  0  0  0  0  0  0  0  0
    0.0001    0.9712   -0.0016 N   0  0  0  0  0  0  0  0  0  0  0  0
   -2.4350    1.0886    0.0009 C   0  0  0  0  0  0  0  0  0  0  0  0
   -0.0002   -1.8091    0.0004 C   0  0  0  0  0  0  0  0  0  0  0  0
    1.1765    0.2905   -0.0009 C   0  0  0  0  0  0  0  0  0  0  0  0
    1.2010   -1.1094    0.0001 C   0  0  0  0  0  0  0  0  0  0  0  0
    2.4353    1.0884    0.0008 C   0  0  0  0  0  0  0  0  0  0  0  0
  1  2  1  0  0  0  0
  1  3  2  0  0  0  0
  1  4  1  0  0  0  0
  2  5  2  0  0  0  0
  6  3  1  0  0  0  0
  5  7  1  0  0  0  0
  7  6  2  0  0  0  0
  6  8  1  0  0  0  0
M  END
>  <Name>
Pyridine, 2,6-dimethyl-

>  <IGC50>
2.19

>  <CAS>
108-48-5

>  <SET>
ws

>  <Species>
Tetrahymena pyriformis

>  <Test duration>
48h

$$$$

  Mrv1808 07152009202D          

  7  6  0  0  0  0            999 V2000
    0.0000   -0.8264    0.0000 C   0  0  0  0  0  0  0  0  0  0  0  0
    0.7149   -1.2382    0.0000 C   0  0  0  0  0  0  0  0  0  0  0  0
    1.4298   -0.8264    0.0000 C   0  0  0  0  0  0  0  0  0  0  0  0
    1.4298    0.0000    0.0000 O   0  0  0  0  0  0  0  0  0  0  0  0
    2.1447   -1.2382    0.0000 C   0  0  0  0  0  0  0  0  0  0  0  0
    2.8595   -0.8264    0.0000 C   0  0  0  0  0  0  0  0  0  0  0  0
    2.8595    0.0000    0.0000 C   0  0  0  0  0  0  0  0  0  0  0  0
  1  2  2  0  0  0  0
  2  3  1  0  0  0  0
  3  4  1  0  0  0  0
  3  5  1  0  0  0  0
  5  6  1  0  0  0  0
  6  7  1  0  0  0  0
M  END
>  <Name>
1-Hexen-3-ol

>  <IGC50>
2.189

>  <CAS>
4798-44-1

>  <SET>
ws

>  <Species>
Tetrahymena pyriformis

>  <Test duration>
48h

$$$$

  Mrv1808 07152009202D          

  6  5  0  0  0  0            999 V2000
    2.1449    1.2374    0.0000 C   0  0  0  0  0  0  0  0  0  0  0  0
    1.4437    0.8250    0.0000 C   0  0  0  0  0  0  0  0  0  0  0  0
    2.8873    0.8250    0.0000 C   0  0  0  0  0  0  0  0  0  0  0  0
    0.7425    1.2374    0.0000 C   0  0  0  0  0  0  0  0  0  0  0  0
    1.4437    0.0000    0.0000 N   0  0  0  0  0  0  0  0  0  0  0  0
    0.0000    0.8250    0.0000 C   0  0  0  0  0  0  0  0  0  0  0  0
  1  2  1  0  0  0  0
  1  3  1  0  0  0  0
  2  4  1  0  0  0  0
  2  5  1  0  0  0  0
  4  6  1  0  0  0  0
M  END
>  <Name>
Propylamine, 1-ethyl- (8CI)

>  <IGC50>
2.187

>  <CAS>
616-24-0

>  <SET>
ws

>  <Species>
Tetrahymena pyriformis

>  <Test duration>
48h

$$$$

  Mrv1808 07152009203D          

  8  7  0  0  0  0            999 V2000
    1.1003    0.4156   -0.1991 C   0  0  0  0  0  0  0  0  0  0  0  0
    2.3227   -0.3908   -0.5819 C   0  0  0  0  0  0  0  0  0  0  0  0
    1.0612    1.5781    0.1532 O   0  0  0  0  0  0  0  0  0  0  0  0
   -0.0572   -0.2998   -0.2813 O   0  0  0  0  0  0  0  0  0  0  0  0
    3.0409   -0.8888    0.6532 C   0  0  0  0  0  0  0  0  0  0  0  0
   -1.2836    0.3447    0.0672 C   0  0  0  0  0  0  0  0  0  0  0  0
   -2.3852   -0.6960   -0.1152 C   0  0  0  0  0  0  0  0  0  0  0  0
   -3.7308   -0.1000    0.2315 C   0  0  0  0  0  0  0  0  0  0  0  0
  1  2  1  0  0  0  0
  1  3  2  0  0  0  0
  1  4  1  0  0  0  0
  2  5  1  0  0  0  0
  4  6  1  0  0  0  0
  6  7  1  0  0  0  0
  7  8  1  0  0  0  0
M  END
>  <Name>
Propanoic acid, propyl ester

>  <IGC50>
2.185

>  <CAS>
106-36-5

>  <SET>
ws

>  <Species>
Tetrahymena pyriformis

>  <Test duration>
48h

$$$$

  Mrv1808 07152009202D          

 10 10  0  0  0  0            999 V2000
    1.6478   -2.1412    0.0000 C   0  0  0  0  0  0  0  0  0  0  0  0
    1.2380   -1.4285    0.0000 C   0  0  0  0  0  0  0  0  0  0  0  0
    2.4731   -2.1412    0.0000 C   0  0  0  0  0  0  0  0  0  0  0  0
    0.4127   -1.4285    0.0000 C   0  0  0  0  0  0  0  0  0  0  0  0
    1.6478   -0.7128    0.0000 C   0  0  0  0  0  0  0  0  0  0  0  0
    2.8858   -1.4285    0.0000 C   0  0  0  0  0  0  0  0  0  0  0  0
    0.0000   -0.7128    0.0000 O   0  0  0  0  0  0  0  0  0  0  0  0
    0.0000   -2.1412    0.0000 C   0  0  0  0  0  0  0  0  0  0  0  0
    2.4731   -0.7128    0.0000 C   0  0  0  0  0  0  0  0  0  0  0  0
    2.8858    0.0000    0.0000 N   0  0  0  0  0  0  0  0  0  0  0  0
  1  2  2  0  0  0  0
  1  3  1  0  0  0  0
  2  4  1  0  0  0  0
  2  5  1  0  0  0  0
  6  3  2  0  0  0  0
  4  7  2  0  0  0  0
  4  8  1  0  0  0  0
  5  9  2  0  0  0  0
  9  6  1  0  0  0  0
  9 10  1  0  0  0  0
M  END
>  <Name>
Ethanone, 1-(3-aminophenyl)-

>  <IGC50>
2.18

>  <CAS>
99-03-6

>  <SET>
ws

>  <Species>
Tetrahymena pyriformis

>  <Test duration>
48h

$$$$

  Mrv1808 07152009202D          

 11 11  0  0  0  0            999 V2000
    2.3882   -1.1598    0.0000 C   0  0  0  0  0  0  0  0  0  0  0  0
    1.8198   -1.7465    0.0000 C   0  0  0  0  0  0  0  0  0  0  0  0
    2.1957   -0.3713    0.0000 C   0  0  0  0  0  0  0  0  0  0  0  0
    3.1950   -1.3706    0.0000 N   0  0  0  0  0  0  0  0  0  0  0  0
    1.0176   -1.5310    0.0000 C   0  0  0  0  0  0  0  0  0  0  0  0
    1.3889   -0.1604    0.0000 C   0  0  0  0  0  0  0  0  0  0  0  0
    3.7817   -0.7976    0.0000 C   0  0  0  0  0  0  0  0  0  0  0  0
    0.8022   -0.7472    0.0000 C   0  0  0  0  0  0  0  0  0  0  0  0
    3.5709    0.0000    0.0000 C   0  0  0  0  0  0  0  0  0  0  0  0
    4.5839   -0.9993    0.0000 O   0  0  0  0  0  0  0  0  0  0  0  0
    0.0000   -0.5318    0.0000 O   0  0  0  0  0  0  0  0  0  0  0  0
  1  2  2  0  0  0  0
  1  3  1  0  0  0  0
  1  4  1  0  0  0  0
  2  5  1  0  0  0  0
  3  6  2  0  0  0  0
  4  7  1  0  0  0  0
  5  8  2  0  0  0  0
  6  8  1  0  0  0  0
  7  9  1  0  0  0  0
  7 10  2  0  0  0  0
  8 11  1  0  0  0  0
M  END
>  <Name>
Acetamide, N-(4-hydroxyphenyl)-

>  <IGC50>
2.18

>  <CAS>
103-90-2

>  <SET>
ws

>  <Species>
Tetrahymena pyriformis

>  <Test duration>
48h

$$$$

  Mrv1808 07152009202D          

  4  3  0  0  0  0            999 V2000
    0.8250    0.0000    0.0000 C   0  0  0  0  0  0  0  0  0  0  0  0
    0.0000    0.0000    0.0000 C   0  0  0  0  0  0  0  0  0  0  0  0
    1.2376    0.7425    0.0000 C   0  0  0  0  0  0  0  0  0  0  0  0
    2.0626    0.7425    0.0000 N   0  0  0  0  0  0  0  0  0  0  0  0
  1  2  3  0  0  0  0
  1  3  1  0  0  0  0
  3  4  1  0  0  0  0
M  END
>  <Name>
2-Propyn-1-amine

>  <IGC50>
2.174

>  <CAS>
2450-71-7

>  <SET>
ws

>  <Species>
Tetrahymena pyriformis

>  <Test duration>
48h

$$$$

  Mrv1808 07152009202D          

  8  8  0  0  0  0            999 V2000
    2.0623   -1.4288    0.0000 N   0  0  0  0  0  0  0  0  0  0  0  0
    1.6499   -0.7161    0.0000 C   0  0  0  0  0  0  0  0  0  0  0  0
    2.8873   -1.4288    0.0000 C   0  0  0  0  0  0  0  0  0  0  0  0
    0.8249   -0.7161    0.0000 C   0  0  0  0  0  0  0  0  0  0  0  0
    2.0623    0.0000    0.0000 C   0  0  0  0  0  0  0  0  0  0  0  0
    3.2998   -0.7161    0.0000 C   0  0  0  0  0  0  0  0  0  0  0  0
    0.0000   -0.7161    0.0000 N   0  0  0  0  0  0  0  0  0  0  0  0
    2.8873    0.0000    0.0000 C   0  0  0  0  0  0  0  0  0  0  0  0
  1  2  2  0  0  0  0
  1  3  1  0  0  0  0
  2  4  1  0  0  0  0
  2  5  1  0  0  0  0
  6  3  2  0  0  0  0
  4  7  3  0  0  0  0
  5  8  2  0  0  0  0
  8  6  1  0  0  0  0
M  END
>  <Name>
Picolinonitrile (8CI)

>  <IGC50>
2.17

>  <CAS>
100-70-9

>  <SET>
ws

>  <Species>
Tetrahymena pyriformis

>  <Test duration>
48h

$$$$

  Mrv1808 07152009202D          

 10 10  0  0  0  0            999 V2000
    0.8365    0.0000    0.0000 C   0  0  0  0  0  0  0  0  0  0  0  0
    1.2548    0.7110    0.0000 C   0  0  0  0  0  0  0  0  0  0  0  0
    0.0000    0.0000    0.0000 O   0  0  0  0  0  0  0  0  0  0  0  0
    2.0913    0.7110    0.0000 C   0  0  0  0  0  0  0  0  0  0  0  0
    2.5096    1.4221    0.0000 C   0  0  0  0  0  0  0  0  0  0  0  0
    2.5096    0.0000    0.0000 C   0  0  0  0  0  0  0  0  0  0  0  0
    3.3461    1.4221    0.0000 C   0  0  0  0  0  0  0  0  0  0  0  0
    3.3461    0.0000    0.0000 C   0  0  0  0  0  0  0  0  0  0  0  0
    3.7644    0.7110    0.0000 C   0  0  0  0  0  0  0  0  0  0  0  0
    4.6008    0.7110    0.0000 O   0  0  0  0  0  0  0  0  0  0  0  0
  1  2  1  0  0  0  0
  1  3  1  0  0  0  0
  2  4  1  0  0  0  0
  5  4  2  0  0  0  0
  4  6  1  0  0  0  0
  7  5  1  0  0  0  0
  6  8  2  0  0  0  0
  9  7  2  0  0  0  0
  8  9  1  0  0  0  0
  9 10  1  0  0  0  0
M  END
>  <Name>
4-Hydroxyphenethyl alcohol

>  <IGC50>
2.17

>  <CAS>
501-94-0

>  <SET>
ws

>  <Species>
Tetrahymena pyriformis

>  <Test duration>
48h

$$$$

  Mrv1808 07152009203D          

  9  9  0  0  0  0            999 V2000
    0.5254    0.7572   -0.0002 O   0  0  0  0  0  0  0  0  0  0  0  0
   -0.3868   -0.2500   -0.0005 C   0  0  0  0  0  0  0  0  0  0  0  0
    1.7514    0.1712    0.0002 C   0  0  0  0  0  0  0  0  0  0  0  0
    0.2433   -1.4727   -0.0004 C   0  0  0  0  0  0  0  0  0  0  0  0
   -1.7659    0.1008    0.0002 C   0  0  0  0  0  0  0  0  0  0  0  0
    1.6320   -1.1992    0.0002 C   0  0  0  0  0  0  0  0  0  0  0  0
    2.9063    1.0802    0.0003 C   0  0  0  0  0  0  0  0  0  0  0  0
   -2.6893   -0.7620    0.0006 O   0  0  0  0  0  0  0  0  0  0  0  0
   -2.2164    1.5745   -0.0002 C   0  0  0  0  0  0  0  0  0  0  0  0
  1  2  1  0  0  0  0
  1  3  1  0  0  0  0
  2  4  2  0  0  0  0
  2  5  1  0  0  0  0
  3  6  2  0  0  0  0
  3  7  1  0  0  0  0
  4  6  1  0  0  0  0
  8  5  2  0  0  0  0
  5  9  1  0  0  0  0
M  END
>  <Name>
1-(5-methylfuran-2-yl)ethanone

>  <IGC50>
2.17

>  <CAS>
1193-79-9

>  <SET>
ws

>  <Species>
Tetrahymena pyriformis

>  <Test duration>
48h

$$$$

  Mrv1808 07152009202D          

  9  9  0  0  0  0            999 V2000
   -0.4051    0.2128    0.0000 N   0  0  0  0  0  0  0  0  0  0  0  0
    0.3486   -0.1227    0.0000 C   0  0  0  0  0  0  0  0  0  0  0  0
   -0.9571   -0.4003    0.0000 C   0  0  0  0  0  0  0  0  0  0  0  0
    0.2624   -0.9432    0.0000 C   0  0  0  0  0  0  0  0  0  0  0  0
    1.0631    0.2898    0.0000 C   0  0  0  0  0  0  0  0  0  0  0  0
   -0.5446   -1.1148    0.0000 C   0  0  0  0  0  0  0  0  0  0  0  0
   -1.7776   -0.3140    0.0000 C   0  0  0  0  0  0  0  0  0  0  0  0
    1.0631    1.1148    0.0000 O   0  0  0  0  0  0  0  0  0  0  0  0
    1.7776   -0.1227    0.0000 C   0  0  0  0  0  0  0  0  0  0  0  0
  1  2  1  0  0  0  0
  1  3  1  0  0  0  0
  2  4  2  0  0  0  0
  2  5  1  0  0  0  0
  6  3  2  0  0  0  0
  3  7  1  0  0  0  0
  4  6  1  0  0  0  0
  5  8  2  0  0  0  0
  5  9  1  0  0  0  0
M  END
>  <Name>
Ketone,methyl 5-methylpyrrol-2-yl (6CI,7CI,8CI)

>  <IGC50>
2.17

>  <CAS>
6982-72-5

>  <SET>
ws

>  <Species>
Tetrahymena pyriformis

>  <Test duration>
48h

$$$$

  Mrv1808 07152009202D          

  8  8  0  0  0  0            999 V2000
    0.0000    0.0000    0.0000 O   0  0  0  0  0  0  0  0  0  0  0  0
    0.4125   -0.7154    0.0000 C   0  0  0  0  0  0  0  0  0  0  0  0
    1.2375   -0.7154    0.0000 C   0  0  0  0  0  0  0  0  0  0  0  0
    1.6471    0.0000    0.0000 C   0  0  0  0  0  0  0  0  0  0  0  0
    1.6471   -1.4279    0.0000 C   0  0  0  0  0  0  0  0  0  0  0  0
    2.4721    0.0000    0.0000 C   0  0  0  0  0  0  0  0  0  0  0  0
    2.4721   -1.4279    0.0000 C   0  0  0  0  0  0  0  0  0  0  0  0
    2.8846   -0.7154    0.0000 C   0  0  0  0  0  0  0  0  0  0  0  0
  1  2  1  0  0  0  0
  2  3  1  0  0  0  0
  3  4  2  0  0  0  0
  3  5  1  0  0  0  0
  4  6  1  0  0  0  0
  7  5  2  0  0  0  0
  6  8  2  0  0  0  0
  8  7  1  0  0  0  0
M  END
>  <Name>
Benzenemethanol

>  <IGC50>
2.17

>  <CAS>
100-51-6

>  <SET>
ws

>  <Species>
Tetrahymena pyriformis

>  <Test duration>
48h

$$$$

  Mrv1808 07152009202D          

  6  5  0  0  0  0            999 V2000
    1.2338   -0.7160    0.0000 C   0  0  0  0  0  0  0  0  0  0  0  0
    2.0588   -0.7160    0.0000 C   0  0  0  0  0  0  0  0  0  0  0  0
    0.8250    0.0000    0.0000 O   0  0  0  0  0  0  0  0  0  0  0  0
    2.4775    0.0000    0.0000 C   0  0  0  0  0  0  0  0  0  0  0  0
    2.4775   -1.4320    0.0000 N   0  0  0  0  0  0  0  0  0  0  0  0
    0.0000    0.0000    0.0000 C   0  0  0  0  0  0  0  0  0  0  0  0
  1  2  1  0  0  0  0
  1  3  1  0  0  0  0
  2  4  1  0  0  0  0
  2  5  1  0  0  0  0
  3  6  1  0  0  0  0
M  END
>  <Name>
2-Propanamine, 1-methoxy-

>  <IGC50>
2.167

>  <CAS>
37143-54-7

>  <SET>
ws

>  <Species>
Tetrahymena pyriformis

>  <Test duration>
48h

$$$$

  Mrv1808 07152009202D          

 10 10  0  0  0  0            999 V2000
    3.5675    0.0000    0.0000 N   0  0  0  0  0  0  0  0  0  0  0  0
    4.2828   -0.4112    0.0000 C   0  0  0  0  0  0  0  0  0  0  0  0
    2.8566   -0.4112    0.0000 C   0  0  0  0  0  0  0  0  0  0  0  0
    4.2828   -1.2377    0.0000 C   0  0  0  0  0  0  0  0  0  0  0  0
    2.8566   -1.2377    0.0000 C   0  0  0  0  0  0  0  0  0  0  0  0
    3.5675   -1.6489    0.0000 C   0  0  0  0  0  0  0  0  0  0  0  0
    2.1414   -1.6489    0.0000 C   0  0  0  0  0  0  0  0  0  0  0  0
    1.4261   -1.2377    0.0000 C   0  0  0  0  0  0  0  0  0  0  0  0
    0.7152   -1.6489    0.0000 C   0  0  0  0  0  0  0  0  0  0  0  0
    0.0000   -1.2377    0.0000 O   0  0  0  0  0  0  0  0  0  0  0  0
  1  2  2  0  0  0  0
  1  3  1  0  0  0  0
  2  4  1  0  0  0  0
  3  5  2  0  0  0  0
  4  6  2  0  0  0  0
  6  5  1  0  0  0  0
  5  7  1  0  0  0  0
  7  8  1  0  0  0  0
  8  9  1  0  0  0  0
  9 10  1  0  0  0  0
M  END
>  <Name>
3-(3-Pyridyl)propan-1-ol

>  <IGC50>
2.16

>  <CAS>
2859-67-8

>  <SET>
ws

>  <Species>
Tetrahymena pyriformis

>  <Test duration>
48h

$$$$

  Mrv1808 07152009202D          

  7  6  0  0  0  0            999 V2000
    0.0000    0.0000    0.0000 O   0  0  0  0  0  0  0  0  0  0  0  0
    0.7291    0.3860    0.0000 C   0  0  0  0  0  0  0  0  0  0  0  0
    1.4583    0.0000    0.0000 C   0  0  0  0  0  0  0  0  0  0  0  0
    2.2302    0.3860    0.0000 C   0  0  0  0  0  0  0  0  0  0  0  0
    2.9593    0.0000    0.0000 C   0  0  0  0  0  0  0  0  0  0  0  0
    3.7313    0.3860    0.0000 C   0  0  0  0  0  0  0  0  0  0  0  0
    4.4604    0.0000    0.0000 C   0  0  0  0  0  0  0  0  0  0  0  0
  1  2  1  0  0  0  0
  2  3  1  0  0  0  0
  3  4  1  0  0  0  0
  4  5  1  0  0  0  0
  5  6  1  0  0  0  0
  6  7  2  0  0  0  0
M  END
>  <Name>
Hex-5-en-1-ol

>  <IGC50>
2.159

>  <CAS>
821-41-0

>  <SET>
ws

>  <Species>
Tetrahymena pyriformis

>  <Test duration>
48h

$$$$

  Mrv1808 07152009202D          

  8  7  0  0  0  0            999 V2000
    2.1750    0.0000    0.0000 C   0  0  0  0  0  0  0  0  0  0  0  0
    2.8862    0.4183    0.0000 C   0  0  0  0  0  0  0  0  0  0  0  0
    1.4640    0.4183    0.0000 C   0  0  0  0  0  0  0  0  0  0  0  0
    3.6390    0.0000    0.0000 O   0  0  0  0  0  0  0  0  0  0  0  0
    2.8862    1.2548    0.0000 O   0  0  0  0  0  0  0  0  0  0  0  0
    0.7110    0.0000    0.0000 C   0  0  0  0  0  0  0  0  0  0  0  0
    4.3501    0.4183    0.0000 C   0  0  0  0  0  0  0  0  0  0  0  0
    0.0000    0.4183    0.0000 C   0  0  0  0  0  0  0  0  0  0  0  0
  1  2  1  0  0  0  0
  1  3  1  0  0  0  0
  2  4  1  0  0  0  0
  2  5  2  0  0  0  0
  3  6  1  0  0  0  0
  4  7  1  0  0  0  0
  6  8  1  0  0  0  0
M  END
>  <Name>
Pentanoic acid, methyl ester

>  <IGC50>
2.155

>  <CAS>
624-24-8

>  <SET>
ws

>  <Species>
Tetrahymena pyriformis

>  <Test duration>
48h

$$$$

  Mrv1808 07152009202D          

  4  3  0  0  0  0            999 V2000
    0.0000    0.0000    0.0000 O   0  0  0  0  0  0  0  0  0  0  0  0
    0.7131   -0.4111    0.0000 C   0  0  0  0  0  0  0  0  0  0  0  0
    1.4283    0.0000    0.0000 C   0  0  0  0  0  0  0  0  0  0  0  0
    2.1415   -0.4111    0.0000 Br  0  0  0  0  0  0  0  0  0  0  0  0
  1  2  1  0  0  0  0
  2  3  1  0  0  0  0
  3  4  1  0  0  0  0
M  END
>  <Name>
2-Bromo-1-ethanol

>  <IGC50>
2.154

>  <CAS>
540-51-2

>  <SET>
ws

>  <Species>
Tetrahymena pyriformis

>  <Test duration>
48h

$$$$

  Mrv1808 07152009202D          

  8  8  0  0  0  0            999 V2000
    0.0000    1.4667    0.0000 C   0  0  0  0  0  0  0  0  0  0  0  0
    0.0000    2.2917    0.0000 C   0  0  0  0  0  0  0  0  0  0  0  0
    1.4667    1.4667    0.0000 C   0  0  0  0  0  0  0  0  0  0  0  0
    0.7334    2.7042    0.0000 N   0  0  0  0  0  0  0  0  0  0  0  0
    1.4667    2.2917    0.0000 C   0  0  0  0  0  0  0  0  0  0  0  0
    1.8792    0.7334    0.0000 C   0  0  0  0  0  0  0  0  0  0  0  0
    2.7042    0.7334    0.0000 C   0  0  0  0  0  0  0  0  0  0  0  0
    1.4667    0.0000    0.0000 O   0  0  0  0  0  0  0  0  0  0  0  0
  1  2  2  0  0  0  0
  3  1  1  0  0  0  0
  2  4  1  0  0  0  0
  5  3  2  0  0  0  0
  3  6  1  0  0  0  0
  4  5  1  0  0  0  0
  6  7  1  0  0  0  0
  6  8  2  0  0  0  0
M  END
>  <Name>
Ketone,methyl pyrrol-3-yl (7CI,8CI)

>  <IGC50>
2.15

>  <CAS>
1072-82-8

>  <SET>
ws

>  <Species>
Tetrahymena pyriformis

>  <Test duration>
48h

$$$$

  Mrv1808 07152009202D          

  9  9  0  0  0  0            999 V2000
    2.6913    0.4968    0.0000 O   0  0  0  0  0  0  0  0  0  0  0  0
    2.1116    1.0351    0.0000 C   0  0  0  0  0  0  0  0  0  0  0  0
    3.4780    0.7453    0.0000 C   0  0  0  0  0  0  0  0  0  0  0  0
    2.3187    1.8632    0.0000 O   0  0  0  0  0  0  0  0  0  0  0  0
    1.3250    0.7867    0.0000 C   0  0  0  0  0  0  0  0  0  0  0  0
    1.0765    0.0000    0.0000 C   0  0  0  0  0  0  0  0  0  0  0  0
    0.6625    1.2835    0.0000 O   0  0  0  0  0  0  0  0  0  0  0  0
    0.2484    0.0000    0.0000 C   0  0  0  0  0  0  0  0  0  0  0  0
    0.0000    0.7867    0.0000 C   0  0  0  0  0  0  0  0  0  0  0  0
  1  2  1  0  0  0  0
  1  3  1  0  0  0  0
  2  4  2  0  0  0  0
  2  5  1  0  0  0  0
  5  6  2  0  0  0  0
  7  5  1  0  0  0  0
  6  8  1  0  0  0  0
  9  7  1  0  0  0  0
  8  9  2  0  0  0  0
M  END
>  <Name>
2-Furancarboxylic acid, methyl ester

>  <IGC50>
2.15

>  <CAS>
611-13-2

>  <SET>
ws

>  <Species>
Tetrahymena pyriformis

>  <Test duration>
48h

$$$$

  Mrv1808 07152009202D          

  8  7  0  0  0  0            999 V2000
    1.2381   -1.4298    0.0000 C   0  0  0  0  0  0  0  0  0  0  0  0
    2.0645   -1.4298    0.0000 S   0  0  0  0  0  0  0  0  0  0  0  0
    0.8264   -2.1446    0.0000 N   0  0  0  0  0  0  0  0  0  0  0  0
    0.8264   -0.7148    0.0000 N   0  0  0  0  0  0  0  0  0  0  0  0
    0.0000   -2.1446    0.0000 C   0  0  0  0  0  0  0  0  0  0  0  0
    1.2381   -2.8595    0.0000 C   0  0  0  0  0  0  0  0  0  0  0  0
    0.0000   -0.7148    0.0000 C   0  0  0  0  0  0  0  0  0  0  0  0
    1.2381    0.0000    0.0000 C   0  0  0  0  0  0  0  0  0  0  0  0
  1  2  2  0  0  0  0
  1  3  1  0  0  0  0
  1  4  1  0  0  0  0
  3  5  1  0  0  0  0
  3  6  1  0  0  0  0
  4  7  1  0  0  0  0
  4  8  1  0  0  0  0
M  END
>  <Name>
Urea, 1,1,3,3-tetramethyl-2-thio-

>  <IGC50>
2.15

>  <CAS>
2782-91-4

>  <SET>
ws

>  <Species>
Tetrahymena pyriformis

>  <Test duration>
48h

$$$$

  Mrv1808 07152009203D          

 12 11  0  0  0  0            999 V2000
   -1.8826    0.4244   -0.0034 C   0  0  0  0  0  0  0  0  0  0  0  0
   -0.6300   -0.4224   -0.0037 C   0  0  0  0  0  0  0  0  0  0  0  0
   -1.9775    1.6364   -0.0082 O   0  0  0  0  0  0  0  0  0  0  0  0
   -3.0147   -0.3358    0.0032 O   0  0  0  0  0  0  0  0  0  0  0  0
    0.6305    0.4255   -0.0081 C   0  0  0  0  0  0  0  0  0  0  0  0
   -4.2817    0.3262    0.0038 C   0  0  0  0  0  0  0  0  0  0  0  0
    1.8823   -0.4225   -0.0053 C   0  0  0  0  0  0  0  0  0  0  0  0
   -5.3349   -0.7648    0.0107 C   0  0  0  0  0  0  0  0  0  0  0  0
    1.9748   -1.6348   -0.0089 O   0  0  0  0  0  0  0  0  0  0  0  0
    3.0157    0.3358    0.0020 O   0  0  0  0  0  0  0  0  0  0  0  0
    4.2816   -0.3284    0.0048 C   0  0  0  0  0  0  0  0  0  0  0  0
    5.3366    0.7609    0.0120 C   0  0  0  0  0  0  0  0  0  0  0  0
  1  2  1  0  0  0  0
  1  3  2  0  0  0  0
  1  4  1  0  0  0  0
  2  5  1  0  0  0  0
  4  6  1  0  0  0  0
  5  7  1  0  0  0  0
  6  8  1  0  0  0  0
  7  9  2  0  0  0  0
  7 10  1  0  0  0  0
 10 11  1  0  0  0  0
 11 12  1  0  0  0  0
M  END
>  <Name>
Butanedioic acid, diethyl ester

>  <IGC50>
2.149

>  <CAS>
123-25-1

>  <SET>
ws

>  <Species>
Tetrahymena pyriformis

>  <Test duration>
48h

$$$$

  Mrv1808 07152009202D          

  4  3  0  0  0  0            999 V2000
    0.8243   -0.7143    0.0000 C   0  0  0  0  0  0  0  0  0  0  0  0
    1.2371    0.0000    0.0000 C   0  0  0  0  0  0  0  0  0  0  0  0
    1.2371   -1.4286    0.0000 C   0  0  0  0  0  0  0  0  0  0  0  0
    0.0000   -0.7143    0.0000 N   0  0  0  0  0  0  0  0  0  0  0  0
  1  2  1  0  0  0  0
  1  3  1  0  0  0  0
  1  4  1  0  0  0  0
M  END
>  <Name>
2-Aminopropane

>  <IGC50>
2.137

>  <CAS>
75-31-0

>  <SET>
ws

>  <Species>
Tetrahymena pyriformis

>  <Test duration>
48h

$$$$

  Mrv1808 07152009202D          

  5  4  0  0  0  0            999 V2000
    2.1751    1.6732    0.0000 N   0  0  0  0  0  0  0  0  0  0  0  0
    1.4222    1.2549    0.0000 C   0  0  0  0  0  0  0  0  0  0  0  0
    0.7111    0.8365    0.0000 C   0  0  0  0  0  0  0  0  0  0  0  0
    0.7111    0.0000    0.0000 Cl  0  0  0  0  0  0  0  0  0  0  0  0
    0.0000    1.2549    0.0000 C   0  0  0  0  0  0  0  0  0  0  0  0
  1  2  3  0  0  0  0
  2  3  1  0  0  0  0
  3  4  1  0  0  0  0
  3  5  1  0  0  0  0
M  END
>  <Name>
2-Chloropropionitrile

>  <IGC50>
2.137

>  <CAS>
1617-17-0

>  <SET>
ws

>  <Species>
Tetrahymena pyriformis

>  <Test duration>
48h

$$$$

  Mrv1808 07152009202D          

  5  4  0  0  0  0            999 V2000
    0.4125   -0.7125    0.0000 C   0  0  0  0  0  0  0  0  0  0  0  0
    0.0000    0.0000    0.0000 O   0  0  0  0  0  0  0  0  0  0  0  0
    1.2376   -0.7125    0.0000 C   0  0  0  0  0  0  0  0  0  0  0  0
    2.0597   -0.7125    0.0000 C   0  0  0  0  0  0  0  0  0  0  0  0
    2.8847   -0.7125    0.0000 C   0  0  0  0  0  0  0  0  0  0  0  0
  1  2  1  0  0  0  0
  1  3  1  0  0  0  0
  3  4  3  0  0  0  0
  4  5  1  0  0  0  0
M  END
>  <Name>
But-2-yn-1-ol

>  <IGC50>
2.132

>  <CAS>
764-01-2

>  <SET>
ws

>  <Species>
Tetrahymena pyriformis

>  <Test duration>
48h

$$$$

  Mrv1808 07152009202D          

  6  5  0  0  0  0            999 V2000
    0.8250    0.8250    0.0000 C   0  0  0  0  0  0  0  0  0  0  0  0
    0.8250    1.6500    0.0000 C   0  0  0  0  0  0  0  0  0  0  0  0
    0.8250    0.0000    0.0000 C   0  0  0  0  0  0  0  0  0  0  0  0
    0.0000    0.8250    0.0000 C   0  0  0  0  0  0  0  0  0  0  0  0
    1.6500    0.8250    0.0000 C   0  0  0  0  0  0  0  0  0  0  0  0
    2.0625    0.0825    0.0000 O   0  0  0  0  0  0  0  0  0  0  0  0
  1  2  1  0  0  0  0
  1  3  1  0  0  0  0
  1  4  1  0  0  0  0
  1  5  1  0  0  0  0
  5  6  1  0  0  0  0
M  END
>  <Name>
1-Propanol, 2,2-dimethyl-

>  <IGC50>
2.13

>  <CAS>
75-84-3

>  <SET>
ws

>  <Species>
Tetrahymena pyriformis

>  <Test duration>
48h

$$$$

  Mrv1808 07152009202D          

  8  8  0  0  0  0            999 V2000
    1.2380    0.0000    0.0000 N   0  0  0  0  0  0  0  0  0  0  0  0
    1.6477   -0.7157    0.0000 C   0  0  0  0  0  0  0  0  0  0  0  0
    0.4126    0.0000    0.0000 C   0  0  0  0  0  0  0  0  0  0  0  0
    2.4731   -0.7157    0.0000 C   0  0  0  0  0  0  0  0  0  0  0  0
    1.2380   -1.4285    0.0000 C   0  0  0  0  0  0  0  0  0  0  0  0
    0.0000   -0.7157    0.0000 C   0  0  0  0  0  0  0  0  0  0  0  0
    2.8858   -1.4285    0.0000 C   0  0  0  0  0  0  0  0  0  0  0  0
    0.4126   -1.4285    0.0000 C   0  0  0  0  0  0  0  0  0  0  0  0
  1  2  2  0  0  0  0
  1  3  1  0  0  0  0
  2  4  1  0  0  0  0
  2  5  1  0  0  0  0
  6  3  2  0  0  0  0
  4  7  1  0  0  0  0
  5  8  2  0  0  0  0
  8  6  1  0  0  0  0
M  END
>  <Name>
Pyridine, 2-ethyl-

>  <IGC50>
2.13

>  <CAS>
100-71-0

>  <SET>
ws

>  <Species>
Tetrahymena pyriformis

>  <Test duration>
48h

$$$$

  Mrv1808 07152009202D          

  8  7  0  0  0  0            999 V2000
    0.0000    0.0000    0.0000 C   0  0  0  0  0  0  0  0  0  0  0  0
    0.7530    0.4183    0.0000 C   0  0  0  0  0  0  0  0  0  0  0  0
    1.4640    0.0000    0.0000 C   0  0  0  0  0  0  0  0  0  0  0  0
    2.1751    0.4183    0.0000 C   0  0  0  0  0  0  0  0  0  0  0  0
    2.8863    0.0000    0.0000 O   0  0  0  0  0  0  0  0  0  0  0  0
    3.5974    0.4183    0.0000 C   0  0  0  0  0  0  0  0  0  0  0  0
    4.3085    0.0000    0.0000 C   0  0  0  0  0  0  0  0  0  0  0  0
    3.5974    1.2131    0.0000 O   0  0  0  0  0  0  0  0  0  0  0  0
  1  2  1  0  0  0  0
  2  3  2  0  0  0  0
  3  4  1  0  0  0  0
  4  5  1  0  0  0  0
  5  6  1  0  0  0  0
  6  7  1  0  0  0  0
  6  8  2  0  0  0  0
M  END
>  <Name>
Acetic acid trans-2-butenyl ester

>  <IGC50>
2.13

>  <CAS>
628-08-0

>  <SET>
ws

>  <Species>
Tetrahymena pyriformis

>  <Test duration>
48h

$$$$

  Mrv1808 07152009202D          

  9  9  0  0  0  0            999 V2000
    2.8846   -0.7154    0.0000 N   0  0  0  0  0  0  0  0  0  0  0  0
    2.4721   -1.4279    0.0000 C   0  0  0  0  0  0  0  0  0  0  0  0
    2.4721    0.0000    0.0000 C   0  0  0  0  0  0  0  0  0  0  0  0
    1.6471   -1.4279    0.0000 C   0  0  0  0  0  0  0  0  0  0  0  0
    1.6471    0.0000    0.0000 C   0  0  0  0  0  0  0  0  0  0  0  0
    1.2375   -0.7154    0.0000 C   0  0  0  0  0  0  0  0  0  0  0  0
    0.4125   -0.7154    0.0000 C   0  0  0  0  0  0  0  0  0  0  0  0
    0.0000   -1.4279    0.0000 O   0  0  0  0  0  0  0  0  0  0  0  0
    0.0000    0.0000    0.0000 C   0  0  0  0  0  0  0  0  0  0  0  0
  1  2  2  0  0  0  0
  1  3  1  0  0  0  0
  2  4  1  0  0  0  0
  5  3  2  0  0  0  0
  4  6  2  0  0  0  0
  6  5  1  0  0  0  0
  6  7  1  0  0  0  0
  7  8  2  0  0  0  0
  7  9  1  0  0  0  0
M  END
>  <Name>
Ethanone, 1-(4-pyridinyl)-

>  <IGC50>
2.13

>  <CAS>
1122-54-9

>  <SET>
ws

>  <Species>
Tetrahymena pyriformis

>  <Test duration>
48h

$$$$

  Mrv1808 07152009202D          

  8  8  0  0  0  0            999 V2000
    0.0000    0.7012    0.0000 C   0  0  0  0  0  0  0  0  0  0  0  0
    0.8250    0.7012    0.0000 C   0  0  0  0  0  0  0  0  0  0  0  0
    1.2375    1.4438    0.0000 C   0  0  0  0  0  0  0  0  0  0  0  0
    1.2375    0.0000    0.0000 N   0  0  0  0  0  0  0  0  0  0  0  0
    0.8250    2.1450    0.0000 C   0  0  0  0  0  0  0  0  0  0  0  0
    2.0625    1.4438    0.0000 N   0  0  0  0  0  0  0  0  0  0  0  0
    2.0625    0.0000    0.0000 C   0  0  0  0  0  0  0  0  0  0  0  0
    2.4750    0.7012    0.0000 C   0  0  0  0  0  0  0  0  0  0  0  0
  1  2  1  0  0  0  0
  3  2  2  0  0  0  0
  2  4  1  0  0  0  0
  3  5  1  0  0  0  0
  6  3  1  0  0  0  0
  4  7  2  0  0  0  0
  8  6  2  0  0  0  0
  7  8  1  0  0  0  0
M  END
>  <Name>
Pyrazine, 2,3-dimethyl-

>  <IGC50>
2.13

>  <CAS>
5910-89-4

>  <SET>
ws

>  <Species>
Tetrahymena pyriformis

>  <Test duration>
48h

$$$$

  Mrv1808 07152009202D          

  4  3  0  0  0  0            999 V2000
    2.1462    0.0000    0.0000 O   0  0  0  0  0  0  0  0  0  0  0  0
    1.4315   -0.4121    0.0000 C   0  0  0  0  0  0  0  0  0  0  0  0
    0.7147    0.0000    0.0000 N   0  0  0  0  0  0  0  0  0  0  0  0
    0.0000   -0.4121    0.0000 N   0  0  0  0  0  0  0  0  0  0  0  0
  1  2  2  0  0  0  0
  2  3  1  0  0  0  0
  3  4  1  0  0  0  0
M  END
>  <Name>
Hydrazinecarboxaldehyde

>  <IGC50>
2.129

>  <CAS>
624-84-0

>  <SET>
ws

>  <Species>
Tetrahymena pyriformis

>  <Test duration>
48h

$$$$

  Mrv1808 07152009203D          

  8  7  0  0  0  0            999 V2000
    3.3034    2.5301    1.0978 C   0  0  0  0  0  0  0  0  0  0  0  0
    3.6321    3.9818    1.4046 C   0  0  0  0  0  0  0  0  0  0  0  0
    1.9119    2.1068    1.4452 C   0  0  0  0  0  0  0  0  0  0  0  0
    5.0794    4.2779    1.0579 C   0  0  0  0  0  0  0  0  0  0  0  0
    1.5966    0.6967    1.0800 C   0  0  0  0  0  0  0  0  0  0  0  0
    1.0021    2.8850    2.0301 C   0  0  0  0  0  0  0  0  0  0  0  0
    6.1044    3.8606    2.0783 C   0  0  0  0  0  0  0  0  0  0  0  0
    5.3904    4.8248    0.0173 O   0  0  0  0  0  0  0  0  0  0  0  0
  1  2  1  0  0  0  0
  1  3  1  0  0  0  0
  2  4  1  0  0  0  0
  3  5  1  0  0  0  0
  3  6  2  0  0  0  0
  4  7  1  0  0  0  0
  4  8  2  0  0  0  0
M  END
>  <Name>
5-Hexen-2-one, 5-methyl-

>  <IGC50>
2.125

>  <CAS>
3240-09-3

>  <SET>
ws

>  <Species>
Tetrahymena pyriformis

>  <Test duration>
48h

$$$$

  Mrv1808 07152009202D          

  6  5  0  0  0  0            999 V2000
    2.1447    0.0000    0.0000 C   0  0  0  0  0  0  0  0  0  0  0  0
    2.1447   -0.8265    0.0000 C   0  0  0  0  0  0  0  0  0  0  0  0
    2.8596   -1.2382    0.0000 C   0  0  0  0  0  0  0  0  0  0  0  0
    1.4298   -1.2382    0.0000 C   0  0  0  0  0  0  0  0  0  0  0  0
    0.7149   -0.8265    0.0000 C   0  0  0  0  0  0  0  0  0  0  0  0
    0.0000   -0.4118    0.0000 N   0  0  0  0  0  0  0  0  0  0  0  0
  1  2  1  0  0  0  0
  2  3  1  0  0  0  0
  2  4  1  0  0  0  0
  4  5  1  0  0  0  0
  5  6  3  0  0  0  0
M  END
>  <Name>
Butanenitrile, 3-methyl-

>  <IGC50>
2.124

>  <CAS>
625-28-5

>  <SET>
ws

>  <Species>
Tetrahymena pyriformis

>  <Test duration>
48h

$$$$

  Mrv1808 07152009203D          

  8  7  0  0  0  0            999 V2000
    4.3022    1.9218    0.9766 O   0  0  0  0  0  0  0  0  0  0  0  0
    3.1334    1.2130    0.9547 C   0  0  0  0  0  0  0  0  0  0  0  0
    5.5372    1.2026    0.9693 C   0  0  0  0  0  0  0  0  0  0  0  0
    1.9273    2.1249    0.9832 C   0  0  0  0  0  0  0  0  0  0  0  0
    3.1816    0.0000    0.9082 O   0  0  0  0  0  0  0  0  0  0  0  0
    6.6244    2.2130    1.1442 C   0  0  0  0  0  0  0  0  0  0  0  0
    0.6029    1.3911    1.0627 C   0  0  0  0  0  0  0  0  0  0  0  0
    7.8398    1.8642    1.5491 C   0  0  0  0  0  0  0  0  0  0  0  0
  1  2  1  0  0  0  0
  1  3  1  0  0  0  0
  2  4  1  0  0  0  0
  2  5  2  0  0  0  0
  3  6  1  0  0  0  0
  4  7  1  0  0  0  0
  6  8  2  0  0  0  0
M  END
>  <Name>
Propionic acid, allyl ester (8CI)

>  <IGC50>
2.121

>  <CAS>
2408-20-0

>  <SET>
ws

>  <Species>
Tetrahymena pyriformis

>  <Test duration>
48h

$$$$

  Mrv1808 07152009202D          

  9  8  0  0  0  0            999 V2000
    0.0000   -1.2373    0.0000 C   0  0  0  0  0  0  0  0  0  0  0  0
    0.7152   -0.8261    0.0000 C   0  0  0  0  0  0  0  0  0  0  0  0
    0.7152    0.0000    0.0000 C   0  0  0  0  0  0  0  0  0  0  0  0
    1.4304   -1.2373    0.0000 C   0  0  0  0  0  0  0  0  0  0  0  0
    1.4304   -2.0633    0.0000 O   0  0  0  0  0  0  0  0  0  0  0  0
    2.1455   -0.8261    0.0000 O   0  0  0  0  0  0  0  0  0  0  0  0
    2.8607   -1.2373    0.0000 C   0  0  0  0  0  0  0  0  0  0  0  0
    3.5759   -0.8261    0.0000 C   0  0  0  0  0  0  0  0  0  0  0  0
    2.8607   -2.0633    0.0000 C   0  0  0  0  0  0  0  0  0  0  0  0
  1  2  2  0  0  0  0
  2  3  1  0  0  0  0
  2  4  1  0  0  0  0
  4  5  2  0  0  0  0
  4  6  1  0  0  0  0
  6  7  1  0  0  0  0
  7  8  1  0  0  0  0
  7  9  1  0  0  0  0
M  END
>  <Name>
2-Propenoic acid, 2-methyl-, 1-methylethyl ester

>  <IGC50>
2.12

>  <CAS>
4655-34-9

>  <SET>
ws

>  <Species>
Tetrahymena pyriformis

>  <Test duration>
48h

$$$$

  Mrv1808 07152009202D          

  8  7  0  0  0  0            999 V2000
    0.4125    0.7144    0.0000 C   0  0  0  0  0  0  0  0  0  0  0  0
    0.0000    0.0000    0.0000 C   0  0  0  0  0  0  0  0  0  0  0  0
    0.0000    1.4290    0.0000 O   0  0  0  0  0  0  0  0  0  0  0  0
    1.2375    0.7144    0.0000 O   0  0  0  0  0  0  0  0  0  0  0  0
    1.6500    0.0000    0.0000 C   0  0  0  0  0  0  0  0  0  0  0  0
    2.4750    0.0000    0.0000 C   0  0  0  0  0  0  0  0  0  0  0  0
    3.3000    0.0000    0.0000 C   0  0  0  0  0  0  0  0  0  0  0  0
    4.1250    0.0000    0.0000 C   0  0  0  0  0  0  0  0  0  0  0  0
  1  2  1  0  0  0  0
  1  3  2  0  0  0  0
  1  4  1  0  0  0  0
  4  5  1  0  0  0  0
  5  6  1  0  0  0  0
  6  7  3  0  0  0  0
  7  8  1  0  0  0  0
M  END
>  <Name>
2-Butyn-1-ol,acetate (9CI)

>  <IGC50>
2.117

>  <CAS>
34485-37-5

>  <SET>
ws

>  <Species>
Tetrahymena pyriformis

>  <Test duration>
48h

$$$$

  Mrv1808 07152009202D          

  9  8  0  0  0  0            999 V2000
    2.8862    1.2549    0.0000 C   0  0  0  0  0  0  0  0  0  0  0  0
    2.1751    0.8365    0.0000 C   0  0  0  0  0  0  0  0  0  0  0  0
    3.6391    0.8365    0.0000 C   0  0  0  0  0  0  0  0  0  0  0  0
    2.8862    2.0914    0.0000 C   0  0  0  0  0  0  0  0  0  0  0  0
    1.4640    1.2549    0.0000 O   0  0  0  0  0  0  0  0  0  0  0  0
    2.1751    0.0000    0.0000 O   0  0  0  0  0  0  0  0  0  0  0  0
    4.3502    1.2549    0.0000 C   0  0  0  0  0  0  0  0  0  0  0  0
    0.7111    0.8365    0.0000 C   0  0  0  0  0  0  0  0  0  0  0  0
    0.0000    1.2549    0.0000 C   0  0  0  0  0  0  0  0  0  0  0  0
  1  2  1  0  0  0  0
  1  3  1  0  0  0  0
  1  4  1  0  0  0  0
  2  5  1  0  0  0  0
  2  6  2  0  0  0  0
  3  7  1  0  0  0  0
  5  8  1  0  0  0  0
  8  9  1  0  0  0  0
M  END
>  <Name>
Butyric acid, 2-methyl-, ethyl ester (8CI)

>  <IGC50>
2.111

>  <CAS>
7452-79-1

>  <SET>
ws

>  <Species>
Tetrahymena pyriformis

>  <Test duration>
48h

$$$$

  Mrv1808 07152009202D          

  5  4  0  0  0  0            999 V2000
    0.8250   -0.8250    0.0000 C   0  0  0  0  0  0  0  0  0  0  0  0
    0.8250   -1.6500    0.0000 C   0  0  0  0  0  0  0  0  0  0  0  0
    0.0000   -0.8250    0.0000 C   0  0  0  0  0  0  0  0  0  0  0  0
    0.8250    0.0000    0.0000 C   0  0  0  0  0  0  0  0  0  0  0  0
    1.6500   -0.8250    0.0000 N   0  0  0  0  0  0  0  0  0  0  0  0
  1  2  1  0  0  0  0
  1  3  1  0  0  0  0
  1  4  1  0  0  0  0
  1  5  1  0  0  0  0
M  END
>  <Name>
2-Propanamine, 2-methyl-

>  <IGC50>
2.103

>  <CAS>
75-64-9

>  <SET>
ws

>  <Species>
Tetrahymena pyriformis

>  <Test duration>
48h

$$$$

  Mrv1808 07152009202D          

  5  4  0  0  0  0            999 V2000
    0.7183   -1.2462    0.0000 C   0  0  0  0  0  0  0  0  0  0  0  0
    1.4349   -1.6550    0.0000 C   0  0  0  0  0  0  0  0  0  0  0  0
    0.7183   -0.4187    0.0000 N   0  0  0  0  0  0  0  0  0  0  0  0
    1.4349    0.0000    0.0000 C   0  0  0  0  0  0  0  0  0  0  0  0
    0.0000    0.0000    0.0000 C   0  0  0  0  0  0  0  0  0  0  0  0
  1  2  1  0  0  0  0
  1  3  1  0  0  0  0
  3  4  1  0  0  0  0
  3  5  1  0  0  0  0
M  END
>  <Name>
Ethanamine, N,N-dimethyl-

>  <IGC50>
2.092

>  <CAS>
598-56-1

>  <SET>
ws

>  <Species>
Tetrahymena pyriformis

>  <Test duration>
48h

$$$$

  Mrv1808 07152009202D          

  8  7  0  0  0  0            999 V2000
    2.4788    0.0000    0.0000 N   0  0  0  0  0  0  0  0  0  0  0  0
    2.8913   -0.7172    0.0000 C   0  0  0  0  0  0  0  0  0  0  0  0
    3.7163   -0.7172    0.0000 O   0  0  0  0  0  0  0  0  0  0  0  0
    2.4788   -1.4308    0.0000 C   0  0  0  0  0  0  0  0  0  0  0  0
    1.6501   -1.4308    0.0000 C   0  0  0  0  0  0  0  0  0  0  0  0
    1.2375   -0.7172    0.0000 C   0  0  0  0  0  0  0  0  0  0  0  0
    0.4125   -0.7172    0.0000 C   0  0  0  0  0  0  0  0  0  0  0  0
    0.0000    0.0000    0.0000 C   0  0  0  0  0  0  0  0  0  0  0  0
  1  2  1  0  0  0  0
  2  3  2  0  0  0  0
  2  4  1  0  0  0  0
  4  5  1  0  0  0  0
  5  6  1  0  0  0  0
  6  7  1  0  0  0  0
  7  8  1  0  0  0  0
M  END
>  <Name>
Hexanamide

>  <IGC50>
2.092

>  <CAS>
628-02-4

>  <SET>
ws

>  <Species>
Tetrahymena pyriformis

>  <Test duration>
48h

$$$$

  Mrv1808 07152009202D          

  9  9  0  0  0  0            999 V2000
    1.6471    0.0000    0.0000 C   0  0  0  0  0  0  0  0  0  0  0  0
    2.4721    0.0000    0.0000 C   0  0  0  0  0  0  0  0  0  0  0  0
    1.2375   -0.7154    0.0000 C   0  0  0  0  0  0  0  0  0  0  0  0
    2.8846   -0.7154    0.0000 C   0  0  0  0  0  0  0  0  0  0  0  0
    1.6471   -1.4279    0.0000 C   0  0  0  0  0  0  0  0  0  0  0  0
    0.4125   -0.7154    0.0000 C   0  0  0  0  0  0  0  0  0  0  0  0
    2.4721   -1.4279    0.0000 C   0  0  0  0  0  0  0  0  0  0  0  0
    0.0000   -1.4279    0.0000 O   0  0  0  0  0  0  0  0  0  0  0  0
    0.0000    0.0000    0.0000 N   0  0  0  0  0  0  0  0  0  0  0  0
  1  2  2  0  0  0  0
  1  3  1  0  0  0  0
  2  4  1  0  0  0  0
  5  3  2  0  0  0  0
  3  6  1  0  0  0  0
  4  7  2  0  0  0  0
  7  5  1  0  0  0  0
  6  8  2  0  0  0  0
  6  9  1  0  0  0  0
M  END
>  <Name>
Benzamide

>  <IGC50>
2.09

>  <CAS>
55-21-0

>  <SET>
ws

>  <Species>
Tetrahymena pyriformis

>  <Test duration>
48h

$$$$

  Mrv1808 07152009202D          

  5  4  0  0  0  0            999 V2000
    0.0000   -0.4118    0.0000 C   0  0  0  0  0  0  0  0  0  0  0  0
    0.7149    0.0000    0.0000 C   0  0  0  0  0  0  0  0  0  0  0  0
    1.4298   -0.4118    0.0000 C   0  0  0  0  0  0  0  0  0  0  0  0
    2.1447    0.0000    0.0000 C   0  0  0  0  0  0  0  0  0  0  0  0
    2.8595   -0.4118    0.0000 Cl  0  0  0  0  0  0  0  0  0  0  0  0
  1  2  1  0  0  0  0
  2  3  1  0  0  0  0
  3  4  1  0  0  0  0
  4  5  1  0  0  0  0
M  END
>  <Name>
Butane, 1-chloro-

>  <IGC50>
2.09

>  <CAS>
109-69-3

>  <SET>
ws

>  <Species>
Tetrahymena pyriformis

>  <Test duration>
48h

$$$$

  Mrv1808 07152009202D          

 10 10  0  0  0  0            999 V2000
    0.0000    1.4024    0.0000 O   0  0  0  0  0  0  0  0  0  0  0  0
    0.4125    0.7012    0.0000 C   0  0  0  0  0  0  0  0  0  0  0  0
    0.0000    0.0000    0.0000 N   0  0  0  0  0  0  0  0  0  0  0  0
    1.2374    0.7012    0.0000 C   0  0  0  0  0  0  0  0  0  0  0  0
    1.6498    1.4024    0.0000 C   0  0  0  0  0  0  0  0  0  0  0  0
    1.6498    0.0000    0.0000 C   0  0  0  0  0  0  0  0  0  0  0  0
    2.4748    1.4024    0.0000 C   0  0  0  0  0  0  0  0  0  0  0  0
    2.4748    0.0000    0.0000 C   0  0  0  0  0  0  0  0  0  0  0  0
    2.9285    0.7012    0.0000 C   0  0  0  0  0  0  0  0  0  0  0  0
    3.7122    0.7012    0.0000 N   0  0  0  0  0  0  0  0  0  0  0  0
  1  2  2  0  0  0  0
  2  3  1  0  0  0  0
  2  4  1  0  0  0  0
  4  5  2  0  0  0  0
  6  4  1  0  0  0  0
  5  7  1  0  0  0  0
  8  6  2  0  0  0  0
  7  9  2  0  0  0  0
  9  8  1  0  0  0  0
 10  9  1  0  0  0  0
M  END
>  <Name>
Benzamide, p-amino- (8CI)

>  <IGC50>
2.09

>  <CAS>
2835-68-9

>  <SET>
ws

>  <Species>
Tetrahymena pyriformis

>  <Test duration>
48h

$$$$

  Mrv1808 07152009202D          

  6  5  0  0  0  0            999 V2000
    1.6088    0.8250    0.0000 C   0  0  0  0  0  0  0  0  0  0  0  0
    0.7838    0.8250    0.0000 C   0  0  0  0  0  0  0  0  0  0  0  0
    2.4338    0.8250    0.0000 C   0  0  0  0  0  0  0  0  0  0  0  0
    0.7838    1.6088    0.0000 C   0  0  0  0  0  0  0  0  0  0  0  0
    0.7838    0.0000    0.0000 C   0  0  0  0  0  0  0  0  0  0  0  0
    0.0000    0.8250    0.0000 N   0  0  0  0  0  0  0  0  0  0  0  0
  1  2  1  0  0  0  0
  1  3  3  0  0  0  0
  2  4  1  0  0  0  0
  2  5  1  0  0  0  0
  2  6  1  0  0  0  0
M  END
>  <Name>
2-Propynylamine, 1,1-dimethyl- (6CI,7CI,8CI)

>  <IGC50>
2.09

>  <CAS>
2978-58-7

>  <SET>
ws

>  <Species>
Tetrahymena pyriformis

>  <Test duration>
48h

$$$$

  Mrv1808 07152009202D          

  6  6  0  0  0  0            999 V2000
    0.0000   -0.6659    0.0000 C   0  0  0  0  0  0  0  0  0  0  0  0
    0.8250   -0.6659    0.0000 C   0  0  0  0  0  0  0  0  0  0  0  0
    1.3087    0.0000    0.0000 N   0  0  0  0  0  0  0  0  0  0  0  0
    1.3087   -1.3338    0.0000 N   0  0  0  0  0  0  0  0  0  0  0  0
    2.0939   -0.2534    0.0000 C   0  0  0  0  0  0  0  0  0  0  0  0
    2.0939   -1.0784    0.0000 C   0  0  0  0  0  0  0  0  0  0  0  0
  1  2  1  0  0  0  0
  2  3  2  0  0  0  0
  2  4  1  0  0  0  0
  3  5  1  0  0  0  0
  6  4  1  0  0  0  0
  5  6  2  0  0  0  0
M  END
>  <Name>
1H-Imidazole, 2-methyl-

>  <IGC50>
2.09

>  <CAS>
693-98-1

>  <SET>
ws

>  <Species>
Tetrahymena pyriformis

>  <Test duration>
48h

$$$$

  Mrv1808 07152009202D          

  7  6  0  0  0  0            999 V2000
    2.1752    1.2968    0.0000 C   0  0  0  0  0  0  0  0  0  0  0  0
    1.4222    0.8366    0.0000 C   0  0  0  0  0  0  0  0  0  0  0  0
    2.8863    0.8785    0.0000 C   0  0  0  0  0  0  0  0  0  0  0  0
    0.7112    1.2550    0.0000 O   0  0  0  0  0  0  0  0  0  0  0  0
    1.4222    0.0000    0.0000 O   0  0  0  0  0  0  0  0  0  0  0  0
    3.5975    1.2550    0.0000 C   0  0  0  0  0  0  0  0  0  0  0  0
    0.0000    0.8366    0.0000 C   0  0  0  0  0  0  0  0  0  0  0  0
  1  2  1  0  0  0  0
  1  3  2  0  0  0  0
  2  4  1  0  0  0  0
  2  5  2  0  0  0  0
  3  6  1  0  0  0  0
  4  7  1  0  0  0  0
M  END
>  <Name>
2-Butenoic acid, methyl ester, (2E)-

>  <IGC50>
2.08

>  <CAS>
623-43-8

>  <SET>
ws

>  <Species>
Tetrahymena pyriformis

>  <Test duration>
48h

$$$$

  Mrv1808 07152009202D          

  7  6  0  0  0  0            999 V2000
    1.8823    0.0000    0.0000 C   0  0  0  0  0  0  0  0  0  0  0  0
    1.4639    0.7111    0.0000 C   0  0  0  0  0  0  0  0  0  0  0  0
    1.0457    0.0000    0.0000 C   0  0  0  0  0  0  0  0  0  0  0  0
    2.1751    1.1294    0.0000 C   0  0  0  0  0  0  0  0  0  0  0  0
    0.7111    1.1294    0.0000 C   0  0  0  0  0  0  0  0  0  0  0  0
    2.8862    0.7111    0.0000 O   0  0  0  0  0  0  0  0  0  0  0  0
    0.0000    0.7111    0.0000 N   0  0  0  0  0  0  0  0  0  0  0  0
  1  2  1  0  0  0  0
  2  3  1  0  0  0  0
  2  4  1  0  0  0  0
  2  5  1  0  0  0  0
  6  4  1  0  0  0  0
  5  7  1  0  0  0  0
M  END
>  <Name>
1-Propanol, 3-amino-2,2-dimethyl-

>  <IGC50>
2.075

>  <CAS>
26734-09-8

>  <SET>
ws

>  <Species>
Tetrahymena pyriformis

>  <Test duration>
48h

$$$$

  Mrv1808 07152009202D          

  8  8  0  0  0  0            999 V2000
    0.0000    1.4438    0.0000 O   0  0  0  0  0  0  0  0  0  0  0  0
    0.8250    1.4438    0.0000 C   0  0  0  0  0  0  0  0  0  0  0  0
    1.2375    0.7012    0.0000 C   0  0  0  0  0  0  0  0  0  0  0  0
    1.2375    2.1450    0.0000 C   0  0  0  0  0  0  0  0  0  0  0  0
    2.0625    0.7012    0.0000 C   0  0  0  0  0  0  0  0  0  0  0  0
    2.0625    2.1450    0.0000 C   0  0  0  0  0  0  0  0  0  0  0  0
    2.4750    0.0000    0.0000 O   0  0  0  0  0  0  0  0  0  0  0  0
    2.4750    1.4438    0.0000 C   0  0  0  0  0  0  0  0  0  0  0  0
  1  2  2  0  0  0  0
  2  3  1  0  0  0  0
  4  2  1  0  0  0  0
  3  5  1  0  0  0  0
  6  4  1  0  0  0  0
  5  7  2  0  0  0  0
  5  8  1  0  0  0  0
  8  6  1  0  0  0  0
M  END
>  <Name>
1,3-Cyclohexanedione

>  <IGC50>
2.071

>  <CAS>
504-02-9

>  <SET>
ws

>  <Species>
Tetrahymena pyriformis

>  <Test duration>
48h

$$$$

  Mrv1808 07152009202D          

  8  7  0  0  0  0            999 V2000
    2.1456    0.0000    0.0000 O   0  0  0  0  0  0  0  0  0  0  0  0
    2.1456   -0.8260    0.0000 C   0  0  0  0  0  0  0  0  0  0  0  0
    1.4304   -1.2373    0.0000 O   0  0  0  0  0  0  0  0  0  0  0  0
    2.8608   -1.2373    0.0000 C   0  0  0  0  0  0  0  0  0  0  0  0
    0.7152   -0.8260    0.0000 C   0  0  0  0  0  0  0  0  0  0  0  0
    3.5759   -0.8260    0.0000 C   0  0  0  0  0  0  0  0  0  0  0  0
    2.8608   -2.0633    0.0000 C   0  0  0  0  0  0  0  0  0  0  0  0
    0.0000   -1.2373    0.0000 C   0  0  0  0  0  0  0  0  0  0  0  0
  1  2  2  0  0  0  0
  2  3  1  0  0  0  0
  2  4  1  0  0  0  0
  3  5  1  0  0  0  0
  4  6  2  0  0  0  0
  4  7  1  0  0  0  0
  5  8  1  0  0  0  0
M  END
>  <Name>
2-Propenoic acid, 2-methyl-, ethyl ester

>  <IGC50>
2.07

>  <CAS>
97-63-2

>  <SET>
ws

>  <Species>
Tetrahymena pyriformis

>  <Test duration>
48h

$$$$

  Mrv1808 07152009203D          

  7  6  0  0  0  0            999 V2000
    2.7514    0.9018   -0.0924 C   0  0  0  0  0  0  0  0  0  0  0  0
    1.5708   -0.0386   -0.3362 C   0  0  2  0  0  0  0  0  0  0  0  0
    0.2847    0.5432    0.2668 C   0  0  0  0  0  0  0  0  0  0  0  0
    1.7818   -1.3025    0.2696 O   0  0  0  0  0  0  0  0  0  0  0  0
   -0.9602   -0.1540   -0.2571 C   0  0  0  0  0  0  0  0  0  0  0  0
   -2.2221    0.4559    0.3331 C   0  0  0  0  0  0  0  0  0  0  0  0
   -3.4639   -0.2324   -0.1869 C   0  0  0  0  0  0  0  0  0  0  0  0
  1  2  1  0  0  0  0
  2  3  1  0  0  0  0
  2  4  1  0  0  0  0
  3  5  1  0  0  0  0
  5  6  1  0  0  0  0
  6  7  1  0  0  0  0
M  END
>  <Name>
hexan-2-ol

>  <IGC50>
2.07

>  <CAS>
626-93-7

>  <SET>
ws

>  <Species>
Tetrahymena pyriformis

>  <Test duration>
48h

$$$$

  Mrv1808 07152009202D          

  8  8  0  0  0  0            999 V2000
    1.4300    1.3200    0.0000 C   0  0  0  0  0  0  0  0  0  0  0  0
    1.4300    0.4950    0.0000 C   0  0  0  0  0  0  0  0  0  0  0  0
    2.2000    1.5675    0.0000 N   0  0  0  0  0  0  0  0  0  0  0  0
    0.7700    1.8150    0.0000 C   0  0  0  0  0  0  0  0  0  0  0  0
    2.2000    0.2475    0.0000 N   0  0  0  0  0  0  0  0  0  0  0  0
    0.7700    0.0000    0.0000 C   0  0  0  0  0  0  0  0  0  0  0  0
    2.6950    0.9075    0.0000 C   0  0  0  0  0  0  0  0  0  0  0  0
    0.0000    0.3575    0.0000 O   0  0  0  0  0  0  0  0  0  0  0  0
  1  2  2  0  0  0  0
  1  3  1  0  0  0  0
  1  4  1  0  0  0  0
  2  5  1  0  0  0  0
  2  6  1  0  0  0  0
  7  3  1  0  0  0  0
  5  7  2  0  0  0  0
  6  8  2  0  0  0  0
M  END
>  <Name>
1H-Imidazole-4-carboxaldehyde,5-methyl- (9CI)

>  <IGC50>
2.07

>  <CAS>
68282-53-1

>  <SET>
ws

>  <Species>
Tetrahymena pyriformis

>  <Test duration>
48h

$$$$

  Mrv1808 07152009202D          

  5  4  0  0  0  0            999 V2000
    1.4304    0.0000    0.0000 O   0  0  0  0  0  0  0  0  0  0  0  0
    1.4304   -0.8256    0.0000 C   0  0  0  0  0  0  0  0  0  0  0  0
    2.1446   -1.2374    0.0000 C   0  0  0  0  0  0  0  0  0  0  0  0
    0.7142   -1.2374    0.0000 C   0  0  0  0  0  0  0  0  0  0  0  0
    0.0000   -0.8256    0.0000 N   0  0  0  0  0  0  0  0  0  0  0  0
  1  2  1  0  0  0  0
  2  3  1  0  0  0  0
  2  4  1  0  0  0  0
  4  5  1  0  0  0  0
M  END
>  <Name>
2-Propanol, 1-amino-

>  <IGC50>
2.07

>  <CAS>
78-96-6

>  <SET>
ws

>  <Species>
Tetrahymena pyriformis

>  <Test duration>
48h

$$$$

  Mrv1808 07152009203D          

  9  9  0  0  0  0            999 V2000
    2.7158   -1.0427    0.0001 C   0  0  0  0  0  0  0  0  0  0  0  0
    1.3173   -0.4813   -0.0015 C   0  0  0  0  0  0  0  0  0  0  0  0
    0.2040   -1.3392    0.0004 C   0  0  0  0  0  0  0  0  0  0  0  0
    1.1126    0.8672    0.0008 C   0  0  0  0  0  0  0  0  0  0  0  0
   -1.0432   -0.8235   -0.0006 C   0  0  0  0  0  0  0  0  0  0  0  0
   -0.2057    1.3579   -0.0003 C   0  0  0  0  0  0  0  0  0  0  0  0
   -2.2304   -1.7518    0.0020 C   0  0  0  0  0  0  0  0  0  0  0  0
   -1.2416    0.5023   -0.0035 O   0  0  0  0  0  0  0  0  0  0  0  0
   -0.4084    2.5602    0.0018 O   0  0  0  0  0  0  0  0  0  0  0  0
  1  2  1  0  0  0  0
  2  3  1  0  0  0  0
  2  4  2  0  0  0  0
  3  5  2  0  0  0  0
  4  6  1  0  0  0  0
  5  7  1  0  0  0  0
  5  8  1  0  0  0  0
  6  9  2  0  0  0  0
  6  8  1  0  0  0  0
M  END
>  <Name>
4,6-dimethylpyran-2-one

>  <IGC50>
2.07

>  <CAS>
675-09-2

>  <SET>
ws

>  <Species>
Tetrahymena pyriformis

>  <Test duration>
48h

$$$$

  Mrv1808 07152009202D          

  5  4  0  0  0  0            999 V2000
    0.0000   -0.4118    0.0000 O   0  0  0  0  0  0  0  0  0  0  0  0
    0.7149    0.0000    0.0000 C   0  0  0  0  0  0  0  0  0  0  0  0
    1.4298   -0.4118    0.0000 C   0  0  0  0  0  0  0  0  0  0  0  0
    2.1447    0.0000    0.0000 C   0  0  0  0  0  0  0  0  0  0  0  0
    2.8595   -0.4118    0.0000 Br  0  0  0  0  0  0  0  0  0  0  0  0
  1  2  1  0  0  0  0
  2  3  1  0  0  0  0
  3  4  1  0  0  0  0
  4  5  1  0  0  0  0
M  END
>  <Name>
1-Propanol, 3-bromo-

>  <IGC50>
2.067

>  <CAS>
627-18-9

>  <SET>
ws

>  <Species>
Tetrahymena pyriformis

>  <Test duration>
48h

$$$$

  Mrv1808 07152009202D          

  8  7  0  0  0  0            999 V2000
    2.8608   -0.8260    0.0000 C   0  0  0  0  0  0  0  0  0  0  0  0
    3.5759   -1.2373    0.0000 O   0  0  0  0  0  0  0  0  0  0  0  0
    2.8608    0.0000    0.0000 O   0  0  0  0  0  0  0  0  0  0  0  0
    2.1456   -1.2373    0.0000 C   0  0  0  0  0  0  0  0  0  0  0  0
    1.4304   -0.8260    0.0000 C   0  0  0  0  0  0  0  0  0  0  0  0
    0.7152   -1.2373    0.0000 C   0  0  0  0  0  0  0  0  0  0  0  0
    0.0000   -0.8260    0.0000 O   0  0  0  0  0  0  0  0  0  0  0  0
    0.7152   -2.0633    0.0000 O   0  0  0  0  0  0  0  0  0  0  0  0
  1  2  1  0  0  0  0
  1  3  2  0  0  0  0
  1  4  1  0  0  0  0
  4  5  1  0  0  0  0
  5  6  1  0  0  0  0
  6  7  1  0  0  0  0
  6  8  2  0  0  0  0
M  END
>  <Name>
Butanedioic acid

>  <IGC50>
2.061

>  <CAS>
110-15-6

>  <SET>
ws

>  <Species>
Tetrahymena pyriformis

>  <Test duration>
48h

$$$$

  Mrv1808 07152009202D          

  4  3  0  0  0  0            999 V2000
    0.0000    0.0000    0.0000 C   0  0  0  0  0  0  0  0  0  0  0  0
    0.7147   -0.4121    0.0000 C   0  0  0  0  0  0  0  0  0  0  0  0
    1.4315    0.0000    0.0000 C   0  0  0  0  0  0  0  0  0  0  0  0
    2.1462   -0.4121    0.0000 Cl  0  0  0  0  0  0  0  0  0  0  0  0
  1  2  2  0  0  0  0
  2  3  1  0  0  0  0
  3  4  1  0  0  0  0
M  END
>  <Name>
1-Propene, 3-chloro-

>  <IGC50>
2.06

>  <CAS>
107-05-1

>  <SET>
ws

>  <Species>
Tetrahymena pyriformis

>  <Test duration>
48h

$$$$

  Mrv1808 07152009203D          

 12 12  0  0  0  0            999 V2000
    2.6338   -0.0229    0.4188 O   0  0  0  0  0  0  0  0  0  0  0  0
    1.3790    0.0422   -0.1189 C   0  0  0  0  0  0  0  0  0  0  0  0
    3.7104    0.0032   -0.5240 C   0  0  0  0  0  0  0  0  0  0  0  0
    1.1147    0.1190   -1.3113 O   0  0  0  0  0  0  0  0  0  0  0  0
    0.3488    0.0062    0.9952 C   0  0  0  0  0  0  0  0  0  0  0  0
    5.0236   -0.0758    0.2249 C   0  0  0  0  0  0  0  0  0  0  0  0
   -1.0568    0.0114    0.5086 C   0  0  0  0  0  0  0  0  0  0  0  0
   -1.7403    1.2051    0.3053 C   0  0  0  0  0  0  0  0  0  0  0  0
   -1.7259   -1.1724    0.2426 C   0  0  0  0  0  0  0  0  0  0  0  0
   -3.0533    1.1789   -0.1513 C   0  0  0  0  0  0  0  0  0  0  0  0
   -3.0010   -1.2376   -0.2021 N   0  0  0  0  0  0  0  0  0  0  0  0
   -3.6331   -0.0571   -0.3879 C   0  0  0  0  0  0  0  0  0  0  0  0
  1  2  1  0  0  0  0
  1  3  1  0  0  0  0
  4  2  2  0  0  0  0
  5  2  1  0  0  0  0
  3  6  1  0  0  0  0
  5  7  1  0  0  0  0
  7  8  1  0  0  0  0
  7  9  2  0  0  0  0
  8 10  2  0  0  0  0
 11  9  1  0  0  0  0
 10 12  1  0  0  0  0
 11 12  2  0  0  0  0
M  END
>  <Name>
ethyl 2-pyridin-3-ylethanoate

>  <IGC50>
2.06

>  <CAS>
39931-77-6

>  <SET>
ws

>  <Species>
Tetrahymena pyriformis

>  <Test duration>
48h

$$$$

  Mrv1808 07152009203D          

  7  6  0  0  0  0            999 V2000
   -0.5202    0.1666    0.0155 C   0  0  0  0  0  0  0  0  0  0  0  0
   -1.6331   -0.8569    0.0343 C   0  0  0  0  0  0  0  0  0  0  0  0
   -0.5983    1.3790    0.0121 O   0  0  0  0  0  0  0  0  0  0  0  0
    0.7138   -0.4196    0.0046 O   0  0  0  0  0  0  0  0  0  0  0  0
   -3.0058   -0.2293   -0.0408 C   0  0  0  0  0  0  0  0  0  0  0  0
    1.8691    0.4207   -0.0076 C   0  0  0  0  0  0  0  0  0  0  0  0
    3.0724   -0.5024   -0.0150 C   0  0  0  0  0  0  0  0  0  0  0  0
  1  2  1  0  0  0  0
  1  3  2  0  0  0  0
  1  4  1  0  0  0  0
  2  5  1  0  0  0  0
  4  6  1  0  0  0  0
  6  7  1  0  0  0  0
M  END
>  <Name>
Propanoic acid, ethyl ester

>  <IGC50>
2.055

>  <CAS>
105-37-3

>  <SET>
ws

>  <Species>
Tetrahymena pyriformis

>  <Test duration>
48h

$$$$

  Mrv1808 07152009203D          

  9  8  0  0  0  0            999 V2000
   -0.9484   -0.6892    0.1992 O   0  0  0  0  0  0  0  0  0  0  0  0
   -2.0972    0.1526    0.1823 C   0  0  1  0  0  0  0  0  0  0  0  0
    0.2561   -0.0509    0.3370 C   0  0  0  0  0  0  0  0  0  0  0  0
   -1.9744    1.1443   -0.9644 C   0  0  0  0  0  0  0  0  0  0  0  0
   -3.3460   -0.7069    0.0569 C   0  0  0  0  0  0  0  0  0  0  0  0
    0.4382    1.0013    0.9343 O   0  0  0  0  0  0  0  0  0  0  0  0
    1.3227   -0.8547   -0.3652 C   0  0  0  0  0  0  0  0  0  0  0  0
    2.6492   -0.2398   -0.2387 C   0  0  0  0  0  0  0  0  0  0  0  0
    3.6998    0.2433   -0.1414 N   0  0  0  0  0  0  0  0  0  0  0  0
  1  2  1  0  0  0  0
  1  3  1  0  0  0  0
  2  4  1  0  0  0  0
  2  5  1  0  0  0  0
  6  3  2  0  0  0  0
  3  7  1  0  0  0  0
  7  8  1  0  0  0  0
  9  8  3  0  0  0  0
M  END
>  <Name>
propan-2-yl 2-cyanoacetate

>  <IGC50>
2.05

>  <CAS>
13361-30-3

>  <SET>
ws

>  <Species>
Tetrahymena pyriformis

>  <Test duration>
48h

$$$$

  Mrv1808 07152009202D          

 10 10  0  0  0  0            999 V2000
    1.2380    0.0000    0.0000 C   0  0  0  0  0  0  0  0  0  0  0  0
    1.6478   -0.7128    0.0000 C   0  0  0  0  0  0  0  0  0  0  0  0
    2.4731   -0.7128    0.0000 C   0  0  0  0  0  0  0  0  0  0  0  0
    1.2380   -1.4285    0.0000 C   0  0  0  0  0  0  0  0  0  0  0  0
    2.8857   -1.4285    0.0000 C   0  0  0  0  0  0  0  0  0  0  0  0
    1.6478   -2.1412    0.0000 C   0  0  0  0  0  0  0  0  0  0  0  0
    0.4127   -1.4285    0.0000 C   0  0  0  0  0  0  0  0  0  0  0  0
    2.4731   -2.1412    0.0000 C   0  0  0  0  0  0  0  0  0  0  0  0
    0.0000   -2.1412    0.0000 N   0  0  0  0  0  0  0  0  0  0  0  0
    0.0000   -0.7128    0.0000 O   0  0  0  0  0  0  0  0  0  0  0  0
  1  2  1  0  0  0  0
  2  3  2  0  0  0  0
  2  4  1  0  0  0  0
  3  5  1  0  0  0  0
  6  4  2  0  0  0  0
  4  7  1  0  0  0  0
  5  8  2  0  0  0  0
  8  6  1  0  0  0  0
  7  9  1  0  0  0  0
  7 10  2  0  0  0  0
M  END
>  <Name>
Benzamide, 2-methyl-

>  <IGC50>
2.05

>  <CAS>
527-85-5

>  <SET>
ws

>  <Species>
Tetrahymena pyriformis

>  <Test duration>
48h

$$$$

  Mrv1808 07152009202D          

  6  5  0  0  0  0            999 V2000
    0.7247    0.0000    0.0000 C   0  0  0  0  0  0  0  0  0  0  0  0
    1.4408   -0.4096    0.0000 C   0  0  0  0  0  0  0  0  0  0  0  0
    0.0000   -0.4096    0.0000 O   0  0  0  0  0  0  0  0  0  0  0  0
    2.1569    0.0000    0.0000 C   0  0  0  0  0  0  0  0  0  0  0  0
    1.4408   -1.2346    0.0000 C   0  0  0  0  0  0  0  0  0  0  0  0
    2.8644   -0.4096    0.0000 C   0  0  0  0  0  0  0  0  0  0  0  0
  1  2  1  0  0  0  0
  1  3  1  0  0  0  0
  2  4  1  0  0  0  0
  2  5  1  0  0  0  0
  4  6  1  0  0  0  0
M  END
>  <Name>
(1)-2-Methylbutan-1-ol

>  <IGC50>
2.047

>  <CAS>
137-32-6

>  <SET>
ws

>  <Species>
Tetrahymena pyriformis

>  <Test duration>
48h

$$$$

  Mrv1808 07152009203D          

  6  5  0  0  0  0            999 V2000
    5.6034    0.9930    0.7982 C   0  0  0  0  0  0  0  0  0  0  0  0
    4.4037    1.6862    1.3131 C   0  0  0  0  0  0  0  0  0  0  0  0
    3.1674    1.2048    1.1736 C   0  0  0  0  0  0  0  0  0  0  0  0
    1.9719    1.9531    1.6585 C   0  0  0  0  0  0  0  0  0  0  0  0
    0.8791    1.0607    1.9883 C   0  0  0  0  0  0  0  0  0  0  0  0
    0.0000    0.3487    2.2412 N   0  0  0  0  0  0  0  0  0  0  0  0
  1  2  1  0  0  0  0
  3  2  2  0  0  0  0
  4  3  1  0  0  0  0
  5  4  1  0  0  0  0
  5  6  3  0  0  0  0
M  END
>  <Name>
3-Pentenenitrile,(E)- (8CI)

>  <IGC50>
2.047

>  <CAS>
16529-66-1

>  <SET>
ws

>  <Species>
Tetrahymena pyriformis

>  <Test duration>
48h

$$$$

  Mrv1808 07152009202D          

  7  7  0  0  0  0            999 V2000
    0.0000   -0.7135    0.0000 C   0  0  0  0  0  0  0  0  0  0  0  0
    0.8250   -0.7135    0.0000 N   0  0  0  0  0  0  0  0  0  0  0  0
    1.2387    0.0000    0.0000 C   0  0  0  0  0  0  0  0  0  0  0  0
    1.2387   -1.4295    0.0000 C   0  0  0  0  0  0  0  0  0  0  0  0
    2.0637    0.0000    0.0000 C   0  0  0  0  0  0  0  0  0  0  0  0
    2.0637   -1.4295    0.0000 C   0  0  0  0  0  0  0  0  0  0  0  0
    2.4775   -0.7135    0.0000 N   0  0  0  0  0  0  0  0  0  0  0  0
  1  2  1  0  0  0  0
  2  3  1  0  0  0  0
  2  4  1  0  0  0  0
  3  5  1  0  0  0  0
  6  4  1  0  0  0  0
  5  7  1  0  0  0  0
  7  6  1  0  0  0  0
M  END
>  <Name>
Piperazine, 1-methyl-

>  <IGC50>
2.04

>  <CAS>
109-01-3

>  <SET>
ws

>  <Species>
Tetrahymena pyriformis

>  <Test duration>
48h

$$$$

  Mrv1808 07152009202D          

  8  7  0  0  0  0            999 V2000
    0.0000    0.0000    0.0000 N   0  0  0  0  0  0  0  0  0  0  0  0
    0.7111    0.3765    0.0000 C   0  0  0  0  0  0  0  0  0  0  0  0
    1.4222    0.0000    0.0000 O   0  0  0  0  0  0  0  0  0  0  0  0
    0.7111    1.1712    0.0000 O   0  0  0  0  0  0  0  0  0  0  0  0
    2.1332    0.4183    0.0000 C   0  0  0  0  0  0  0  0  0  0  0  0
    2.8444    0.0000    0.0000 C   0  0  0  0  0  0  0  0  0  0  0  0
    3.5554    0.4183    0.0000 C   0  0  0  0  0  0  0  0  0  0  0  0
    4.3084    0.0000    0.0000 C   0  0  0  0  0  0  0  0  0  0  0  0
  1  2  1  0  0  0  0
  2  3  1  0  0  0  0
  2  4  2  0  0  0  0
  3  5  1  0  0  0  0
  5  6  1  0  0  0  0
  6  7  1  0  0  0  0
  7  8  1  0  0  0  0
M  END
>  <Name>
Carbamic acid, butyl ester

>  <IGC50>
2.034

>  <CAS>
592-35-8

>  <SET>
ws

>  <Species>
Tetrahymena pyriformis

>  <Test duration>
48h

$$$$

  Mrv1808 07152009203D          

  8  8  0  0  0  0            999 V2000
    0.8296   -1.4160   -0.0047 S   0  0  0  0  0  0  0  0  0  0  0  0
   -0.0830    0.0329   -0.0017 C   0  0  0  0  0  0  0  0  0  0  0  0
    2.3066   -0.5495   -0.0004 C   0  0  0  0  0  0  0  0  0  0  0  0
    0.7221    1.1509    0.0026 C   0  0  0  0  0  0  0  0  0  0  0  0
   -1.5080   -0.0434   -0.0045 C   0  0  0  0  0  0  0  0  0  0  0  0
    2.1063    0.8135    0.0033 C   0  0  0  0  0  0  0  0  0  0  0  0
   -2.1258   -1.1391    0.0083 O   0  0  0  0  0  0  0  0  0  0  0  0
   -2.2478    1.1507   -0.0029 N   0  0  0  0  0  0  0  0  0  0  0  0
  1  2  1  0  0  0  0
  1  3  1  0  0  0  0
  2  4  2  0  0  0  0
  2  5  1  0  0  0  0
  6  3  2  0  0  0  0
  4  6  1  0  0  0  0
  7  5  2  0  0  0  0
  8  5  1  0  0  0  0
M  END
>  <Name>
thiophene-2-carboxamide

>  <IGC50>
2.03

>  <CAS>
5813-89-8

>  <SET>
ws

>  <Species>
Tetrahymena pyriformis

>  <Test duration>
48h

$$$$

  Mrv1808 07152009202D          

  7  6  0  0  0  0            999 V2000
    0.7529    0.4183    0.0000 C   0  0  0  0  0  0  0  0  0  0  0  0
    0.0000    0.0000    0.0000 C   0  0  0  0  0  0  0  0  0  0  0  0
    1.4640    0.0000    0.0000 C   0  0  0  0  0  0  0  0  0  0  0  0
    2.1750    0.4183    0.0000 C   0  0  0  0  0  0  0  0  0  0  0  0
    2.1750    1.2548    0.0000 O   0  0  0  0  0  0  0  0  0  0  0  0
    2.8861    0.0000    0.0000 N   0  0  0  0  0  0  0  0  0  0  0  0
    3.5972    0.4183    0.0000 N   0  0  0  0  0  0  0  0  0  0  0  0
  1  2  1  0  0  0  0
  1  3  1  0  0  0  0
  3  4  1  0  0  0  0
  5  4  2  0  0  0  0
  4  6  1  0  0  0  0
  6  7  1  0  0  0  0
M  END
>  <Name>
Butyrohydrazide

>  <IGC50>
2.028

>  <CAS>
3538-65-6

>  <SET>
ws

>  <Species>
Tetrahymena pyriformis

>  <Test duration>
48h

$$$$

  Mrv1808 07152009202D          

  6  5  0  0  0  0            999 V2000
    2.0608   -0.7133    0.0000 Cl  0  0  0  0  0  0  0  0  0  0  0  0
    1.2360   -0.7133    0.0000 C   0  0  0  0  0  0  0  0  0  0  0  0
    0.8247    0.0000    0.0000 Cl  0  0  0  0  0  0  0  0  0  0  0  0
    0.8247   -1.4288    0.0000 C   0  0  0  0  0  0  0  0  0  0  0  0
    1.2360   -2.1421    0.0000 N   0  0  0  0  0  0  0  0  0  0  0  0
    0.0000   -1.4288    0.0000 O   0  0  0  0  0  0  0  0  0  0  0  0
  1  2  1  0  0  0  0
  2  3  1  0  0  0  0
  2  4  1  0  0  0  0
  4  5  1  0  0  0  0
  4  6  2  0  0  0  0
M  END
>  <Name>
Acetamide, 2,2-dichloro-

>  <IGC50>
2.023

>  <CAS>
683-72-7

>  <SET>
ws

>  <Species>
Tetrahymena pyriformis

>  <Test duration>
48h

$$$$

  Mrv1808 07152009202D          

  5  4  0  0  0  0            999 V2000
    2.1632   -0.4406    0.0000 C   0  0  0  0  0  0  0  0  0  0  0  0
    2.8614    0.0000    0.0000 C   0  0  0  0  0  0  0  0  0  0  0  0
    1.4250   -0.0515    0.0000 S   0  0  0  0  0  0  0  0  0  0  0  0
    0.7268   -0.4893    0.0000 C   0  0  0  0  0  0  0  0  0  0  0  0
    0.0000   -0.1001    0.0000 C   0  0  0  0  0  0  0  0  0  0  0  0
  1  2  1  0  0  0  0
  1  3  1  0  0  0  0
  4  3  1  0  0  0  0
  4  5  1  0  0  0  0
M  END
>  <Name>
Ethane, 1,1'-thiobis-

>  <IGC50>
2.02

>  <CAS>
352-93-2

>  <SET>
ws

>  <Species>
Tetrahymena pyriformis

>  <Test duration>
48h

$$$$

  Mrv1808 07152009202D          

  5  4  0  0  0  0            999 V2000
    0.0000    0.0000    0.0000 C   0  0  0  0  0  0  0  0  0  0  0  0
    0.6693    0.4183    0.0000 N   0  0  0  0  0  0  0  0  0  0  0  0
    1.4222    0.0000    0.0000 C   0  0  0  0  0  0  0  0  0  0  0  0
    2.1333    0.4183    0.0000 C   0  0  0  0  0  0  0  0  0  0  0  0
    2.8444    0.8366    0.0000 C   0  0  0  0  0  0  0  0  0  0  0  0
  1  2  1  0  0  0  0
  2  3  1  0  0  0  0
  3  4  1  0  0  0  0
  4  5  3  0  0  0  0
M  END
>  <Name>
2-Propyn-1-amine, N-methyl-

>  <IGC50>
2.018

>  <CAS>
35161-71-8

>  <SET>
ws

>  <Species>
Tetrahymena pyriformis

>  <Test duration>
48h

$$$$

  Mrv1808 07152009202D          

  6  5  0  0  0  0            999 V2000
    2.1447    0.0000    0.0000 O   0  0  0  0  0  0  0  0  0  0  0  0
    2.1447   -0.8264    0.0000 N   0  3  0  0  0  0  0  0  0  0  0  0
    1.4298   -1.2382    0.0000 C   0  0  0  0  0  0  0  0  0  0  0  0
    2.8596   -1.2382    0.0000 O   0  5  0  0  0  0  0  0  0  0  0  0
    0.7149   -0.8264    0.0000 C   0  0  0  0  0  0  0  0  0  0  0  0
    0.0000   -1.2382    0.0000 C   0  0  0  0  0  0  0  0  0  0  0  0
  1  2  2  0  0  0  0
  2  3  1  0  0  0  0
  2  4  1  0  0  0  0
  3  5  1  0  0  0  0
  5  6  1  0  0  0  0
M  CHG  2   2   1   4  -1
M  END
>  <Name>
Propane, 1-nitro-

>  <IGC50>
2.01

>  <CAS>
108-03-2

>  <SET>
ws

>  <Species>
Tetrahymena pyriformis

>  <Test duration>
48h

$$$$

  Mrv1808 07152009202D          

  8  7  0  0  0  0            999 V2000
    1.4348    2.4186    0.0000 O   0  0  0  0  0  0  0  0  0  0  0  0
    1.4348    1.5988    0.0000 S   0  0  0  0  0  0  0  0  0  0  0  0
    0.7379    1.1888    0.0000 O   0  0  0  0  0  0  0  0  0  0  0  0
    2.0907    1.1888    0.0000 O   0  0  0  0  0  0  0  0  0  0  0  0
    0.7379    0.3690    0.0000 C   0  0  0  0  0  0  0  0  0  0  0  0
    2.0907    0.3690    0.0000 C   0  0  0  0  0  0  0  0  0  0  0  0
    0.0000    0.0000    0.0000 C   0  0  0  0  0  0  0  0  0  0  0  0
    2.8286    0.0000    0.0000 C   0  0  0  0  0  0  0  0  0  0  0  0
  1  2  2  0  0  0  0
  2  3  1  0  0  0  0
  2  4  1  0  0  0  0
  3  5  1  0  0  0  0
  4  6  1  0  0  0  0
  5  7  1  0  0  0  0
  6  8  1  0  0  0  0
M  END
>  <Name>
Sulfurous acid, diethyl ester

>  <IGC50>
2.01

>  <CAS>
623-81-4

>  <SET>
ws

>  <Species>
Tetrahymena pyriformis

>  <Test duration>
48h

$$$$

  Mrv1808 07152009203D          

 11 11  0  0  0  0            999 V2000
   -2.6421   -0.0181    0.1493 O   0  0  0  0  0  0  0  0  0  0  0  0
   -1.2876   -0.0519    0.0089 C   0  0  0  0  0  0  0  0  0  0  0  0
   -3.3213   -1.2717    0.1869 C   0  0  0  0  0  0  0  0  0  0  0  0
   -0.5498    1.1309   -0.0365 C   0  0  0  0  0  0  0  0  0  0  0  0
   -0.6390   -1.2828   -0.0899 C   0  0  0  0  0  0  0  0  0  0  0  0
   -1.1720    2.3392    0.0580 O   0  0  0  0  0  0  0  0  0  0  0  0
    0.8367    1.0829   -0.1809 C   0  0  0  0  0  0  0  0  0  0  0  0
    0.7475   -1.3309   -0.2345 C   0  0  0  0  0  0  0  0  0  0  0  0
    1.4854   -0.1480   -0.2800 C   0  0  0  0  0  0  0  0  0  0  0  0
    2.9679   -0.1996   -0.4334 C   0  0  0  0  0  0  0  0  0  0  0  0
    3.5745   -0.2500    0.8521 O   0  0  0  0  0  0  0  0  0  0  0  0
  1  2  1  0  0  0  0
  1  3  1  0  0  0  0
  2  4  2  0  0  0  0
  2  5  1  0  0  0  0
  6  4  1  0  0  0  0
  7  4  1  0  0  0  0
  8  5  2  0  0  0  0
  9  7  2  0  0  0  0
  9  8  1  0  0  0  0
  9 10  1  0  0  0  0
 11 10  1  0  0  0  0
M  END
>  <Name>
5-(hydroxymethyl)-2-methoxyphenol

>  <IGC50>
2.01

>  <CAS>
4383-06-6

>  <SET>
ws

>  <Species>
Tetrahymena pyriformis

>  <Test duration>
48h

$$$$

  Mrv1808 07152009202D          

  7  7  0  0  0  0            999 V2000
    2.0637   -1.4295    0.0000 N   0  0  0  0  0  0  0  0  0  0  0  0
    1.2387   -1.4295    0.0000 C   0  0  0  0  0  0  0  0  0  0  0  0
    2.4775   -0.7135    0.0000 C   0  0  0  0  0  0  0  0  0  0  0  0
    0.8250   -0.7135    0.0000 C   0  0  0  0  0  0  0  0  0  0  0  0
    2.0637    0.0000    0.0000 C   0  0  0  0  0  0  0  0  0  0  0  0
    0.0000   -0.7135    0.0000 C   0  0  0  0  0  0  0  0  0  0  0  0
    1.2387    0.0000    0.0000 C   0  0  0  0  0  0  0  0  0  0  0  0
  1  2  2  0  0  0  0
  1  3  1  0  0  0  0
  2  4  1  0  0  0  0
  5  3  2  0  0  0  0
  4  6  1  0  0  0  0
  4  7  2  0  0  0  0
  7  5  1  0  0  0  0
M  END
>  <Name>
Pyridine, 3-methyl-

>  <IGC50>
2.01

>  <CAS>
108-99-6

>  <SET>
ws

>  <Species>
Tetrahymena pyriformis

>  <Test duration>
48h

$$$$

  Mrv1808 07152009203D          

  6  5  0  0  0  0            999 V2000
    1.8697    1.9366    3.4047 C   0  0  2  0  0  0  0  0  0  0  0  0
    2.7381    1.9086    2.1212 C   0  0  2  0  0  0  0  0  0  0  0  0
    0.7084    2.9190    3.2433 C   0  0  0  0  0  0  0  0  0  0  0  0
    2.6174    2.2246    4.5639 O   0  0  0  0  0  0  0  0  0  0  0  0
    1.9102    1.4079    0.9480 C   0  0  0  0  0  0  0  0  0  0  0  0
    3.9659    1.0315    2.2964 C   0  0  0  0  0  0  0  0  0  0  0  0
  1  2  1  0  0  0  0
  1  3  1  0  0  0  0
  1  4  1  0  0  0  0
  2  5  1  0  0  0  0
  2  6  1  0  0  0  0
M  END
>  <Name>
2-Butanol, 3-methyl-

>  <IGC50>
2.004

>  <CAS>
598-75-4

>  <SET>
ws

>  <Species>
Tetrahymena pyriformis

>  <Test duration>
48h

$$$$

  Mrv1808 07152009202D          

  5  4  0  0  0  0            999 V2000
    2.0596   -0.7154    0.0000 C   0  0  0  0  0  0  0  0  0  0  0  0
    2.8846   -0.7154    0.0000 N   0  0  0  0  0  0  0  0  0  0  0  0
    1.2346   -0.7154    0.0000 C   0  0  0  0  0  0  0  0  0  0  0  0
    0.8250    0.0000    0.0000 C   0  0  0  0  0  0  0  0  0  0  0  0
    0.0000    0.0000    0.0000 Cl  0  0  0  0  0  0  0  0  0  0  0  0
  1  2  3  0  0  0  0
  1  3  1  0  0  0  0
  3  4  1  0  0  0  0
  4  5  1  0  0  0  0
M  END
>  <Name>
Propanenitrile, 3-chloro-

>  <IGC50>
2.001

>  <CAS>
542-76-7

>  <SET>
ws

>  <Species>
Tetrahymena pyriformis

>  <Test duration>
48h

$$$$

  Mrv1808 07152009202D          

  5  5  0  0  0  0            999 V2000
    1.2602   -0.6749    0.0000 N   0  0  0  0  0  0  0  0  0  0  0  0
    0.7835   -1.3393    0.0000 C   0  0  0  0  0  0  0  0  0  0  0  0
    0.7835    0.0000    0.0000 C   0  0  0  0  0  0  0  0  0  0  0  0
    0.0000   -1.0808    0.0000 N   0  0  0  0  0  0  0  0  0  0  0  0
    0.0000   -0.2585    0.0000 C   0  0  0  0  0  0  0  0  0  0  0  0
  1  2  2  0  0  0  0
  1  3  1  0  0  0  0
  4  2  1  0  0  0  0
  3  5  2  0  0  0  0
  4  5  1  0  0  0  0
M  END
>  <Name>
1H-Imidazole

>  <IGC50>
2

>  <CAS>
288-32-4

>  <SET>
ws

>  <Species>
Tetrahymena pyriformis

>  <Test duration>
48h

$$$$

  Mrv1808 07152009202D          

  9  9  0  0  0  0            999 V2000
    2.1160    1.3387    0.0000 C   0  0  0  0  0  0  0  0  0  0  0  0
    2.1160    2.1592    0.0000 C   0  0  0  0  0  0  0  0  0  0  0  0
    1.3387    1.0796    0.0000 C   0  0  0  0  0  0  0  0  0  0  0  0
    2.8501    0.9068    0.0000 C   0  0  0  0  0  0  0  0  0  0  0  0
    1.3819    2.4183    0.0000 C   0  0  0  0  0  0  0  0  0  0  0  0
    0.8637    1.7706    0.0000 N   0  0  0  0  0  0  0  0  0  0  0  0
    2.8501    0.0000    0.0000 C   0  0  0  0  0  0  0  0  0  0  0  0
    3.6275    1.3387    0.0000 O   0  0  0  0  0  0  0  0  0  0  0  0
    0.0000    1.7706    0.0000 C   0  0  0  0  0  0  0  0  0  0  0  0
  1  2  1  0  0  0  0
  3  1  2  0  0  0  0
  1  4  1  0  0  0  0
  2  5  2  0  0  0  0
  6  3  1  0  0  0  0
  4  7  1  0  0  0  0
  4  8  2  0  0  0  0
  5  6  1  0  0  0  0
  6  9  1  0  0  0  0
M  END
>  <Name>
Ketone,methyl 1-methylpyrrol-3-yl (7CI,8CI)

>  <IGC50>
2

>  <CAS>
932-62-7

>  <SET>
ws

>  <Species>
Tetrahymena pyriformis

>  <Test duration>
48h

$$$$

  Mrv1808 07152009202D          

  6  5  0  0  0  0            999 V2000
    3.5759    0.0000    0.0000 N   0  0  0  0  0  0  0  0  0  0  0  0
    2.8607   -0.4148    0.0000 C   0  0  0  0  0  0  0  0  0  0  0  0
    2.1456   -0.8260    0.0000 C   0  0  0  0  0  0  0  0  0  0  0  0
    1.4304   -0.4148    0.0000 C   0  0  0  0  0  0  0  0  0  0  0  0
    0.7152   -0.8260    0.0000 C   0  0  0  0  0  0  0  0  0  0  0  0
    0.0000   -0.4148    0.0000 C   0  0  0  0  0  0  0  0  0  0  0  0
  1  2  3  0  0  0  0
  2  3  1  0  0  0  0
  3  4  1  0  0  0  0
  4  5  1  0  0  0  0
  5  6  1  0  0  0  0
M  END
>  <Name>
Pentanenitrile

>  <IGC50>
1.993

>  <CAS>
110-59-8

>  <SET>
ws

>  <Species>
Tetrahymena pyriformis

>  <Test duration>
48h

$$$$

  Mrv1808 07152009202D          

  8  8  0  0  0  0            999 V2000
    0.0000   -1.7934    0.0000 C   0  0  0  0  0  0  0  0  0  0  0  0
    0.6677   -1.3078    0.0000 C   0  0  0  0  0  0  0  0  0  0  0  0
    0.6677   -0.4856    0.0000 C   0  0  0  0  0  0  0  0  0  0  0  0
    1.4513   -1.5645    0.0000 N   0  0  0  0  0  0  0  0  0  0  0  0
    0.0000    0.0000    0.0000 C   0  0  0  0  0  0  0  0  0  0  0  0
    1.4513   -0.2290    0.0000 O   0  0  0  0  0  0  0  0  0  0  0  0
    1.9342   -0.8967    0.0000 C   0  0  0  0  0  0  0  0  0  0  0  0
    2.7592   -0.8967    0.0000 C   0  0  0  0  0  0  0  0  0  0  0  0
  1  2  1  0  0  0  0
  2  3  2  0  0  0  0
  2  4  1  0  0  0  0
  3  5  1  0  0  0  0
  3  6  1  0  0  0  0
  7  4  2  0  0  0  0
  6  7  1  0  0  0  0
  7  8  1  0  0  0  0
M  END
>  <Name>
2,4,5-Trimethyloxazole

>  <IGC50>
1.99

>  <CAS>
20662-84-4

>  <SET>
ws

>  <Species>
Tetrahymena pyriformis

>  <Test duration>
48h

$$$$

  Mrv1808 07152009202D          

 10 10  0  0  0  0            999 V2000
    3.3075   -0.7061    0.0000 C   0  0  0  0  0  0  0  0  0  0  0  0
    3.7163    0.0000    0.0000 O   0  0  0  0  0  0  0  0  0  0  0  0
    2.4825   -0.7061    0.0000 C   0  0  0  0  0  0  0  0  0  0  0  0
    3.7163   -1.4233    0.0000 O   0  0  0  0  0  0  0  0  0  0  0  0
    2.0625   -1.4233    0.0000 C   0  0  0  0  0  0  0  0  0  0  0  0
    2.0625    0.0000    0.0000 C   0  0  0  0  0  0  0  0  0  0  0  0
    1.2338   -1.4233    0.0000 C   0  0  0  0  0  0  0  0  0  0  0  0
    1.2338    0.0000    0.0000 C   0  0  0  0  0  0  0  0  0  0  0  0
    0.8287   -0.7061    0.0000 C   0  0  0  0  0  0  0  0  0  0  0  0
    0.0000   -0.7061    0.0000 O   0  0  0  0  0  0  0  0  0  0  0  0
  1  2  2  0  0  0  0
  1  3  1  0  0  0  0
  1  4  1  0  0  0  0
  3  5  2  0  0  0  0
  3  6  1  0  0  0  0
  5  7  1  0  0  0  0
  6  8  2  0  0  0  0
  7  9  2  0  0  0  0
  8  9  1  0  0  0  0
  9 10  1  0  0  0  0
M  END
>  <Name>
Benzoic acid, 4-hydroxy-

>  <IGC50>
1.98

>  <CAS>
99-96-7

>  <SET>
ws

>  <Species>
Tetrahymena pyriformis

>  <Test duration>
48h

$$$$

  Mrv1808 07152009202D          

  9  9  0  0  0  0            999 V2000
    0.0000    0.0000    0.0000 O   0  0  0  0  0  0  0  0  0  0  0  0
    0.4125    0.7012    0.0000 C   0  0  0  0  0  0  0  0  0  0  0  0
    1.2375    0.7012    0.0000 C   0  0  0  0  0  0  0  0  0  0  0  0
    1.6500    1.4438    0.0000 C   0  0  0  0  0  0  0  0  0  0  0  0
    1.6500    0.0000    0.0000 C   0  0  0  0  0  0  0  0  0  0  0  0
    2.4750    1.4438    0.0000 C   0  0  0  0  0  0  0  0  0  0  0  0
    2.4750    0.0000    0.0000 C   0  0  0  0  0  0  0  0  0  0  0  0
    2.8874    2.1450    0.0000 O   0  0  0  0  0  0  0  0  0  0  0  0
    2.8874    0.7012    0.0000 C   0  0  0  0  0  0  0  0  0  0  0  0
  1  2  1  0  0  0  0
  2  3  1  0  0  0  0
  4  3  2  0  0  0  0
  3  5  1  0  0  0  0
  6  4  1  0  0  0  0
  5  7  2  0  0  0  0
  6  8  1  0  0  0  0
  9  6  2  0  0  0  0
  7  9  1  0  0  0  0
M  END
>  <Name>
Benzyl alcohol, m-hydroxy- (8CI)

>  <IGC50>
1.98

>  <CAS>
620-24-6

>  <SET>
ws

>  <Species>
Tetrahymena pyriformis

>  <Test duration>
48h

$$$$

  Mrv1808 07152009203D          

  6  5  0  0  0  0            999 V2000
   -1.9549    0.3562    0.0002 C   0  0  0  0  0  0  0  0  0  0  0  0
   -2.2539   -0.8153    0.0017 O   0  0  0  0  0  0  0  0  0  0  0  0
   -0.6604    0.7451   -0.0016 O   0  0  0  0  0  0  0  0  0  0  0  0
    0.3690   -0.2480   -0.0030 C   0  0  0  0  0  0  0  0  0  0  0  0
    1.6990    0.4998    0.0032 C   0  0  0  0  0  0  0  0  0  0  0  0
    2.8512   -0.4791   -0.0002 C   0  0  0  0  0  0  0  0  0  0  0  0
  1  2  2  0  0  0  0
  1  3  1  0  0  0  0
  3  4  1  0  0  0  0
  4  5  1  0  0  0  0
  5  6  1  0  0  0  0
M  END
>  <Name>
Formic acid, propyl ester

>  <IGC50>
1.978

>  <CAS>
110-74-7

>  <SET>
ws

>  <Species>
Tetrahymena pyriformis

>  <Test duration>
48h

$$$$

  Mrv1808 07152009202D          

  6  5  0  0  0  0            999 V2000
    0.0000   -0.4113    0.0000 C   0  0  0  0  0  0  0  0  0  0  0  0
    0.7152    0.0000    0.0000 C   0  0  0  0  0  0  0  0  0  0  0  0
    1.4304   -0.4113    0.0000 C   0  0  0  0  0  0  0  0  0  0  0  0
    2.1456    0.0000    0.0000 C   0  0  0  0  0  0  0  0  0  0  0  0
    2.8607   -0.4113    0.0000 C   0  0  0  0  0  0  0  0  0  0  0  0
    3.5759    0.0000    0.0000 O   0  0  0  0  0  0  0  0  0  0  0  0
  1  2  1  0  0  0  0
  2  3  1  0  0  0  0
  3  4  1  0  0  0  0
  4  5  1  0  0  0  0
  5  6  1  0  0  0  0
M  END
>  <Name>
Pentyl alcohol

>  <IGC50>
1.97

>  <CAS>
71-41-0

>  <SET>
ws

>  <Species>
Tetrahymena pyriformis

>  <Test duration>
48h

$$$$

  Mrv1808 07152009202D          

  6  5  0  0  0  0            999 V2000
    1.4298   -1.2382    0.0000 C   0  0  0  0  0  0  0  0  0  0  0  0
    0.7149   -0.8264    0.0000 C   0  0  0  0  0  0  0  0  0  0  0  0
    2.1447   -0.8264    0.0000 C   0  0  0  0  0  0  0  0  0  0  0  0
    0.0000   -1.2382    0.0000 O   0  0  0  0  0  0  0  0  0  0  0  0
    2.1447    0.0000    0.0000 C   0  0  0  0  0  0  0  0  0  0  0  0
    2.8596   -1.2382    0.0000 C   0  0  0  0  0  0  0  0  0  0  0  0
  1  2  1  0  0  0  0
  1  3  1  0  0  0  0
  2  4  1  0  0  0  0
  3  5  1  0  0  0  0
  3  6  1  0  0  0  0
M  END
>  <Name>
Isopentyl alcohol (8CI)

>  <IGC50>
1.964

>  <CAS>
123-51-3

>  <SET>
ws

>  <Species>
Tetrahymena pyriformis

>  <Test duration>
48h

$$$$

  Mrv1808 07152009203D          

  8  8  0  0  0  0            999 V2000
    3.1859    2.8497    1.0327 C   0  0  0  0  0  0  0  0  0  0  0  0
    1.9574    2.2242    0.8422 O   0  0  0  0  0  0  0  0  0  0  0  0
    3.0135    4.2178    1.0615 C   0  0  0  0  0  0  0  0  0  0  0  0
    4.4034    2.0228    1.1632 C   0  0  0  0  0  0  0  0  0  0  0  0
    1.0204    3.2200    0.7502 C   0  0  0  0  0  0  0  0  0  0  0  0
    1.6083    4.4562    0.8774 C   0  0  0  0  0  0  0  0  0  0  0  0
    4.2501    0.5364    0.9998 C   0  0  0  0  0  0  0  0  0  0  0  0
    5.4795    2.5467    1.3899 O   0  0  0  0  0  0  0  0  0  0  0  0
  1  2  1  0  0  0  0
  3  1  2  0  0  0  0
  1  4  1  0  0  0  0
  2  5  1  0  0  0  0
  6  3  1  0  0  0  0
  4  7  1  0  0  0  0
  4  8  2  0  0  0  0
  5  6  2  0  0  0  0
M  END
>  <Name>
Ethanone, 1-(2-furanyl)-

>  <IGC50>
1.96

>  <CAS>
1192-62-7

>  <SET>
ws

>  <Species>
Tetrahymena pyriformis

>  <Test duration>
48h

$$$$

  Mrv1808 07152009202D          

  5  4  0  0  0  0            999 V2000
    0.7012    1.2787    0.0000 C   0  0  0  0  0  0  0  0  0  0  0  0
    1.4437    0.8250    0.0000 C   0  0  0  0  0  0  0  0  0  0  0  0
    0.0000    0.8662    0.0000 C   0  0  0  0  0  0  0  0  0  0  0  0
    1.4437    0.0000    0.0000 C   0  0  0  0  0  0  0  0  0  0  0  0
    2.1449    1.2375    0.0000 O   0  0  0  0  0  0  0  0  0  0  0  0
  1  2  1  0  0  0  0
  1  3  2  0  0  0  0
  2  4  1  0  0  0  0
  2  5  1  0  0  0  0
M  END
>  <Name>
3-Buten-2-ol

>  <IGC50>
1.947

>  <CAS>
598-32-3

>  <SET>
ws

>  <Species>
Tetrahymena pyriformis

>  <Test duration>
48h

$$$$

  Mrv1808 07152009202D          

  8  7  0  0  0  0            999 V2000
    0.7276    0.6301    0.0000 O   0  0  0  0  0  0  0  0  0  0  0  0
    0.5717   -0.1800    0.0000 C   0  0  0  0  0  0  0  0  0  0  0  0
    1.1953   -0.7201    0.0000 O   0  0  0  0  0  0  0  0  0  0  0  0
   -0.2079   -0.4501    0.0000 C   0  0  0  0  0  0  0  0  0  0  0  0
    1.9749   -0.4501    0.0000 C   0  0  0  0  0  0  0  0  0  0  0  0
   -0.8315    0.0900    0.0000 C   0  0  0  0  0  0  0  0  0  0  0  0
   -0.6756    0.9001    0.0000 C   0  0  0  0  0  0  0  0  0  0  0  0
   -1.6111   -0.1800    0.0000 C   0  0  0  0  0  0  0  0  0  0  0  0
  1  2  2  0  0  0  0
  2  3  1  0  0  0  0
  2  4  1  0  0  0  0
  3  5  1  0  0  0  0
  4  6  2  0  0  0  0
  6  7  1  0  0  0  0
  6  8  1  0  0  0  0
M  END
>  <Name>
methyl 3-methylbut-2-enoate

>  <IGC50>
1.94

>  <CAS>
924-50-5

>  <SET>
ws

>  <Species>
Tetrahymena pyriformis

>  <Test duration>
48h

$$$$

  Mrv1808 07152009202D          

  6  5  0  0  0  0            999 V2000
    2.4775   -1.4295    0.0000 C   0  0  0  0  0  0  0  0  0  0  0  0
    2.0637   -0.7135    0.0000 C   0  0  0  0  0  0  0  0  0  0  0  0
    1.2387   -0.7135    0.0000 C   0  0  0  0  0  0  0  0  0  0  0  0
    0.8250    0.0000    0.0000 C   0  0  0  0  0  0  0  0  0  0  0  0
    0.8250   -1.4295    0.0000 N   0  0  0  0  0  0  0  0  0  0  0  0
    0.0000   -1.4295    0.0000 O   0  0  0  0  0  0  0  0  0  0  0  0
  1  2  1  0  0  0  0
  2  3  1  0  0  0  0
  3  4  1  0  0  0  0
  3  5  2  0  0  0  0
  5  6  1  0  0  0  0
M  END
>  <Name>
2-Butanone, oxime

>  <IGC50>
1.93

>  <CAS>
96-29-7

>  <SET>
ws

>  <Species>
Tetrahymena pyriformis

>  <Test duration>
48h

$$$$

  Mrv1808 07152009202D          

  9  9  0  0  0  0            999 V2000
    1.6313    2.1332    0.0000 C   0  0  0  0  0  0  0  0  0  0  0  0
    1.2130    1.4221    0.0000 C   0  0  0  0  0  0  0  0  0  0  0  0
    2.4679    2.1332    0.0000 C   0  0  0  0  0  0  0  0  0  0  0  0
    1.6313    0.7111    0.0000 C   0  0  0  0  0  0  0  0  0  0  0  0
    0.4183    1.4221    0.0000 C   0  0  0  0  0  0  0  0  0  0  0  0
    2.8861    1.4221    0.0000 C   0  0  0  0  0  0  0  0  0  0  0  0
    2.4679    0.7111    0.0000 C   0  0  0  0  0  0  0  0  0  0  0  0
    1.2130    0.0000    0.0000 N   0  0  0  0  0  0  0  0  0  0  0  0
    0.0000    0.7111    0.0000 O   0  0  0  0  0  0  0  0  0  0  0  0
  1  2  2  0  0  0  0
  3  1  1  0  0  0  0
  2  4  1  0  0  0  0
  2  5  1  0  0  0  0
  6  3  2  0  0  0  0
  4  7  2  0  0  0  0
  4  8  1  0  0  0  0
  5  9  1  0  0  0  0
  7  6  1  0  0  0  0
M  END
>  <Name>
Benzenemethanol, 2-amino-

>  <IGC50>
1.93

>  <CAS>
5344-90-1

>  <SET>
ws

>  <Species>
Tetrahymena pyriformis

>  <Test duration>
48h

$$$$

  Mrv1808 07152009202D          

  4  3  0  0  0  0            999 V2000
    0.4125   -0.7136    0.0000 C   0  0  0  0  0  0  0  0  0  0  0  0
    0.0000    0.0000    0.0000 O   0  0  0  0  0  0  0  0  0  0  0  0
    1.2375   -0.7136    0.0000 C   0  0  0  0  0  0  0  0  0  0  0  0
    2.0625   -0.7136    0.0000 C   0  0  0  0  0  0  0  0  0  0  0  0
  1  2  1  0  0  0  0
  1  3  1  0  0  0  0
  3  4  3  0  0  0  0
M  END
>  <Name>
Propargyl alcohol

>  <IGC50>
1.926

>  <CAS>
107-19-7

>  <SET>
ws

>  <Species>
Tetrahymena pyriformis

>  <Test duration>
48h

$$$$

  Mrv1808 07152009202D          

  7  7  0  0  0  0            999 V2000
    0.0000    0.7111    0.0000 C   0  0  0  0  0  0  0  0  0  0  0  0
    0.8366    0.7111    0.0000 C   0  0  0  0  0  0  0  0  0  0  0  0
    1.2549    1.4222    0.0000 C   0  0  0  0  0  0  0  0  0  0  0  0
    1.2549    0.0000    0.0000 N   0  0  0  0  0  0  0  0  0  0  0  0
    2.0914    1.4222    0.0000 N   0  0  0  0  0  0  0  0  0  0  0  0
    2.0914    0.0000    0.0000 C   0  0  0  0  0  0  0  0  0  0  0  0
    2.5097    0.7111    0.0000 C   0  0  0  0  0  0  0  0  0  0  0  0
  1  2  1  0  0  0  0
  3  2  2  0  0  0  0
  2  4  1  0  0  0  0
  5  3  1  0  0  0  0
  4  6  2  0  0  0  0
  7  5  2  0  0  0  0
  6  7  1  0  0  0  0
M  END
>  <Name>
Pyrazine, 2-methyl-

>  <IGC50>
1.91

>  <CAS>
109-08-0

>  <SET>
ws

>  <Species>
Tetrahymena pyriformis

>  <Test duration>
48h

$$$$

  Mrv1808 07152009202D          

  5  5  0  0  0  0            999 V2000
    1.0801    0.0000    0.0000 N   0  0  0  0  0  0  0  0  0  0  0  0
    1.3351   -0.7851    0.0000 C   0  0  0  0  0  0  0  0  0  0  0  0
    0.2550    0.0000    0.0000 C   0  0  0  0  0  0  0  0  0  0  0  0
    0.6676   -1.2698    0.0000 C   0  0  0  0  0  0  0  0  0  0  0  0
    0.0000   -0.7851    0.0000 C   0  0  0  0  0  0  0  0  0  0  0  0
  1  2  1  0  0  0  0
  1  3  1  0  0  0  0
  2  4  2  0  0  0  0
  5  3  2  0  0  0  0
  4  5  1  0  0  0  0
M  END
>  <Name>
1H-Pyrrole

>  <IGC50>
1.91

>  <CAS>
109-97-7

>  <SET>
ws

>  <Species>
Tetrahymena pyriformis

>  <Test duration>
48h

$$$$

  Mrv1808 07152009203D          

  6  5  0  0  0  0            999 V2000
    0.9199    1.0399    2.6842 C   0  0  0  0  0  0  0  0  0  0  0  0
    2.0046    1.1063    1.6329 C   0  0  0  0  0  0  0  0  0  0  0  0
    2.3484    2.5107    1.2841 C   0  0  0  0  0  0  0  0  0  0  0  0
    3.5863    2.9314    1.0163 C   0  0  0  0  0  0  0  0  0  0  0  0
    4.7729    2.0238    1.0184 C   0  0  0  0  0  0  0  0  0  0  0  0
    5.8969    2.7739    1.4200 O   0  0  0  0  0  0  0  0  0  0  0  0
  1  2  1  0  0  0  0
  2  3  1  0  0  0  0
  3  4  2  0  0  0  0
  4  5  1  0  0  0  0
  5  6  1  0  0  0  0
M  END
>  <Name>
2-Penten-1-ol, (2Z)-

>  <IGC50>
1.895

>  <CAS>
1576-95-0

>  <SET>
ws

>  <Species>
Tetrahymena pyriformis

>  <Test duration>
48h

$$$$

  Mrv1808 07152009203D          

  6  5  0  0  0  0            999 V2000
    0.0000    0.0000    0.0000 C   0  0  0  0  0  0  0  0  0  0  0  0
   -0.4800   -0.6600   -1.2200 N   0  0  0  0  0  0  0  0  0  0  0  0
   -0.1200   -0.1600   -2.4400 C   0  0  0  0  0  0  0  0  0  0  0  0
    0.8600    1.1800   -2.6400 S   0  0  0  0  0  0  0  0  0  0  0  0
   -0.6400   -0.8800   -3.4600 N   0  0  0  0  0  0  0  0  0  0  0  0
   -0.3600   -0.5000   -4.8400 C   0  0  0  0  0  0  0  0  0  0  0  0
  1  2  1  0  0  0  0
  2  3  1  0  0  0  0
  3  4  2  0  0  0  0
  3  5  1  0  0  0  0
  5  6  1  0  0  0  0
M  END
>  <Name>
Urea, 1,3-dimethyl-2-thio-

>  <IGC50>
1.89

>  <CAS>
534-13-4

>  <SET>
ws

>  <Species>
Tetrahymena pyriformis

>  <Test duration>
48h

$$$$

  Mrv1808 07152009202D          

  9  9  0  0  0  0            999 V2000
    0.0000    0.0000    0.0000 O   0  0  0  0  0  0  0  0  0  0  0  0
    0.4125    0.7012    0.0000 C   0  0  0  0  0  0  0  0  0  0  0  0
    1.2375    0.7012    0.0000 C   0  0  0  0  0  0  0  0  0  0  0  0
    1.6500    1.4438    0.0000 C   0  0  0  0  0  0  0  0  0  0  0  0
    1.6500    0.0000    0.0000 C   0  0  0  0  0  0  0  0  0  0  0  0
    2.4750    1.4438    0.0000 C   0  0  0  0  0  0  0  0  0  0  0  0
    2.4750    0.0000    0.0000 C   0  0  0  0  0  0  0  0  0  0  0  0
    2.8874    2.1450    0.0000 N   0  0  0  0  0  0  0  0  0  0  0  0
    2.8874    0.7012    0.0000 C   0  0  0  0  0  0  0  0  0  0  0  0
  1  2  1  0  0  0  0
  2  3  1  0  0  0  0
  4  3  2  0  0  0  0
  3  5  1  0  0  0  0
  6  4  1  0  0  0  0
  5  7  2  0  0  0  0
  6  8  1  0  0  0  0
  9  6  2  0  0  0  0
  7  9  1  0  0  0  0
M  END
>  <Name>
Benzenemethanol, 3-amino- (9CI)

>  <IGC50>
1.87

>  <CAS>
1877-77-6

>  <SET>
ws

>  <Species>
Tetrahymena pyriformis

>  <Test duration>
48h

$$$$

  Mrv1808 07152009203D          

  7  6  0  0  0  0            999 V2000
    1.6853    0.9076    1.6941 C   0  0  0  0  0  0  0  0  0  0  0  0
    2.4647    0.8996    2.9968 C   0  0  0  0  0  0  0  0  0  0  0  0
    0.8148    2.1501    1.5662 C   0  0  0  0  0  0  0  0  0  0  0  0
    3.9367    1.1839    2.8832 C   0  0  0  0  0  0  0  0  0  0  0  0
    1.9294    0.6713    4.0650 O   0  0  0  0  0  0  0  0  0  0  0  0
    1.5439    3.3655    1.1046 C   0  0  0  0  0  0  0  0  0  0  0  0
    2.6372    3.3303    0.3513 C   0  0  0  0  0  0  0  0  0  0  0  0
  1  2  1  0  0  0  0
  1  3  1  0  0  0  0
  2  4  1  0  0  0  0
  2  5  2  0  0  0  0
  3  6  1  0  0  0  0
  6  7  2  0  0  0  0
M  END
>  <Name>
5-Hexen-2-one

>  <IGC50>
1.86

>  <CAS>
109-49-9

>  <SET>
ws

>  <Species>
Tetrahymena pyriformis

>  <Test duration>
48h

$$$$

  Mrv1808 07152009202D          

  6  5  0  0  0  0            999 V2000
    0.0000    0.0000    0.0000 C   0  0  0  0  0  0  0  0  0  0  0  0
    0.6693    0.4183    0.0000 N   0  0  0  0  0  0  0  0  0  0  0  0
    1.4221    0.0000    0.0000 C   0  0  0  0  0  0  0  0  0  0  0  0
    0.6693    1.2548    0.0000 C   0  0  0  0  0  0  0  0  0  0  0  0
    2.1332    0.4183    0.0000 C   0  0  0  0  0  0  0  0  0  0  0  0
    2.8443    0.8366    0.0000 C   0  0  0  0  0  0  0  0  0  0  0  0
  1  2  1  0  0  0  0
  2  3  1  0  0  0  0
  2  4  1  0  0  0  0
  3  5  1  0  0  0  0
  5  6  3  0  0  0  0
M  END
>  <Name>
2-Propyn-1-amine, N,N-dimethyl-

>  <IGC50>
1.855

>  <CAS>
7223-38-3

>  <SET>
ws

>  <Species>
Tetrahymena pyriformis

>  <Test duration>
48h

$$$$

  Mrv1808 07152009203D          

  8  7  0  0  0  0            999 V2000
    1.5052   -1.2288   -0.0024 O   0  0  0  0  0  0  0  0  0  0  0  0
    1.3977   -0.0054    0.0095 C   0  0  0  0  0  0  0  0  0  0  0  0
    0.2155    0.7080    0.0113 N   0  0  0  0  0  0  0  0  0  0  0  0
    2.6019    0.8978   -0.0018 C   0  0  0  0  0  0  0  0  0  0  0  0
   -1.0897    0.0727   -0.0011 C   0  0  1  0  0  0  0  0  0  0  0  0
   -2.1785    1.1518    0.0049 C   0  0  0  0  0  0  0  0  0  0  0  0
   -1.2170   -0.7856   -1.2639 C   0  0  0  0  0  0  0  0  0  0  0  0
   -1.2352   -0.8105    1.2436 C   0  0  0  0  0  0  0  0  0  0  0  0
  1  2  2  0  0  0  0
  3  2  1  0  0  0  0
  2  4  1  0  0  0  0
  3  5  1  0  0  0  0
  5  6  1  0  0  0  0
  5  7  1  0  0  0  0
  5  8  1  0  0  0  0
M  END
>  <Name>
N-tert-butylacetamide

>  <IGC50>
1.842

>  <CAS>
762-84-5

>  <SET>
ws

>  <Species>
Tetrahymena pyriformis

>  <Test duration>
48h

$$$$

  Mrv1808 07152009202D          

  8  7  0  0  0  0            999 V2000
    2.1749    1.2548    0.0000 C   0  0  0  0  0  0  0  0  0  0  0  0
    1.4221    0.8365    0.0000 C   0  0  0  0  0  0  0  0  0  0  0  0
    2.8860    0.8365    0.0000 O   0  0  0  0  0  0  0  0  0  0  0  0
    2.1749    2.0913    0.0000 O   0  0  0  0  0  0  0  0  0  0  0  0
    0.7110    1.2548    0.0000 C   0  0  0  0  0  0  0  0  0  0  0  0
    1.4221    0.0000    0.0000 C   0  0  0  0  0  0  0  0  0  0  0  0
    3.5970    1.2548    0.0000 C   0  0  0  0  0  0  0  0  0  0  0  0
    0.0000    0.8365    0.0000 C   0  0  0  0  0  0  0  0  0  0  0  0
  1  2  1  0  0  0  0
  1  3  1  0  0  0  0
  1  4  2  0  0  0  0
  2  5  1  0  0  0  0
  2  6  1  0  0  0  0
  3  7  1  0  0  0  0
  5  8  1  0  0  0  0
M  END
>  <Name>
(+/-)-methyl- 2-methylbutyrate

>  <IGC50>
1.835

>  <CAS>
53955-81-0

>  <SET>
ws

>  <Species>
Tetrahymena pyriformis

>  <Test duration>
48h

$$$$

  Mrv1808 07152009202D          

  7  6  0  0  0  0            999 V2000
    1.4025    1.2375    0.0000 O   0  0  0  0  0  0  0  0  0  0  0  0
    0.7012    0.8250    0.0000 C   0  0  0  0  0  0  0  0  0  0  0  0
    2.1450    0.8250    0.0000 C   0  0  0  0  0  0  0  0  0  0  0  0
    0.7012    0.0000    0.0000 C   0  0  0  0  0  0  0  0  0  0  0  0
    0.0000    1.2375    0.0000 O   0  0  0  0  0  0  0  0  0  0  0  0
    2.8050    1.2375    0.0000 C   0  0  0  0  0  0  0  0  0  0  0  0
    3.5475    1.6912    0.0000 C   0  0  0  0  0  0  0  0  0  0  0  0
  1  2  1  0  0  0  0
  1  3  1  0  0  0  0
  2  4  1  0  0  0  0
  2  5  2  0  0  0  0
  3  6  1  0  0  0  0
  6  7  3  0  0  0  0
M  END
>  <Name>
2-Propyn-1-ol, acetate

>  <IGC50>
1.834

>  <CAS>
627-09-8

>  <SET>
ws

>  <Species>
Tetrahymena pyriformis

>  <Test duration>
48h

$$$$

  Mrv1808 07152009202D          

 11 10  0  0  0  0            999 V2000
    0.0000   -0.7183    0.0000 C   0  0  0  0  0  0  0  0  0  0  0  0
    0.4128   -1.4326    0.0000 O   0  0  0  0  0  0  0  0  0  0  0  0
    1.2386   -1.4326    0.0000 C   0  0  0  0  0  0  0  0  0  0  0  0
    1.6514   -0.7183    0.0000 O   0  0  0  0  0  0  0  0  0  0  0  0
    1.6514   -2.1468    0.0000 C   0  0  0  0  0  0  0  0  0  0  0  0
    2.4771   -2.1468    0.0000 C   0  0  0  0  0  0  0  0  0  0  0  0
    2.8899   -1.4326    0.0000 C   0  0  0  0  0  0  0  0  0  0  0  0
    3.7156   -1.4326    0.0000 C   0  0  0  0  0  0  0  0  0  0  0  0
    4.1285   -2.1468    0.0000 O   0  0  0  0  0  0  0  0  0  0  0  0
    4.1285   -0.7183    0.0000 O   0  0  0  0  0  0  0  0  0  0  0  0
    3.7156    0.0000    0.0000 C   0  0  0  0  0  0  0  0  0  0  0  0
  1  2  1  0  0  0  0
  2  3  1  0  0  0  0
  3  4  2  0  0  0  0
  3  5  1  0  0  0  0
  5  6  1  0  0  0  0
  6  7  1  0  0  0  0
  7  8  1  0  0  0  0
  8  9  2  0  0  0  0
  8 10  1  0  0  0  0
 10 11  1  0  0  0  0
M  END
>  <Name>
Glutaric acid, dimethyl ester (8CI)

>  <IGC50>
1.832

>  <CAS>
1119-40-0

>  <SET>
ws

>  <Species>
Tetrahymena pyriformis

>  <Test duration>
48h

$$$$

  Mrv1808 07152009202D          

  6  5  0  0  0  0            999 V2000
    2.0614   -0.7135    0.0000 C   0  0  0  0  0  0  0  0  0  0  0  0
    1.2364   -0.7135    0.0000 C   0  0  0  0  0  0  0  0  0  0  0  0
    0.8250    0.0000    0.0000 O   0  0  0  0  0  0  0  0  0  0  0  0
    0.8250   -1.4292    0.0000 C   0  0  0  0  0  0  0  0  0  0  0  0
    1.2364   -2.1428    0.0000 C   0  0  0  0  0  0  0  0  0  0  0  0
    0.0000   -1.4292    0.0000 C   0  0  0  0  0  0  0  0  0  0  0  0
  1  2  1  0  0  0  0
  2  3  2  0  0  0  0
  2  4  1  0  0  0  0
  4  5  1  0  0  0  0
  4  6  1  0  0  0  0
M  END
>  <Name>
2-Butanone, 3-methyl-

>  <IGC50>
1.831

>  <CAS>
563-80-4

>  <SET>
ws

>  <Species>
Tetrahymena pyriformis

>  <Test duration>
48h

$$$$

  Mrv1808 07152009203D          

  6  5  0  0  0  0            999 V2000
    2.8344    4.2404    1.4879 C   0  0  0  0  0  0  0  0  0  0  0  0
    3.5647    3.0430    1.8063 C   0  0  0  0  0  0  0  0  0  0  0  0
    1.4642    3.8968    0.8937 C   0  0  0  0  0  0  0  0  0  0  0  0
    4.1787    2.0565    2.0757 C   0  0  0  0  0  0  0  0  0  0  0  0
    0.8441    5.1144    0.5466 O   0  0  0  0  0  0  0  0  0  0  0  0
    4.9162    0.8733    2.4008 C   0  0  0  0  0  0  0  0  0  0  0  0
  1  2  1  0  0  0  0
  1  3  1  0  0  0  0
  2  4  3  0  0  0  0
  3  5  1  0  0  0  0
  4  6  1  0  0  0  0
M  END
>  <Name>
3-Pentyn-1-ol

>  <IGC50>
1.825

>  <CAS>
10229-10-4

>  <SET>
ws

>  <Species>
Tetrahymena pyriformis

>  <Test duration>
48h

$$$$

  Mrv1808 07152009202D          

  6  5  0  0  0  0            999 V2000
    0.0000    0.8250    0.0000 C   0  0  0  0  0  0  0  0  0  0  0  0
    0.8250    0.8250    0.0000 C   0  0  0  0  0  0  0  0  0  0  0  0
    1.6499    0.8250    0.0000 C   0  0  0  0  0  0  0  0  0  0  0  0
    2.3512    1.2787    0.0000 C   0  0  0  0  0  0  0  0  0  0  0  0
    1.6499    0.0000    0.0000 O   0  0  0  0  0  0  0  0  0  0  0  0
    3.0937    0.8663    0.0000 C   0  0  0  0  0  0  0  0  0  0  0  0
  1  2  3  0  0  0  0
  2  3  1  0  0  0  0
  3  4  1  0  0  0  0
  3  5  1  0  0  0  0
  4  6  1  0  0  0  0
M  END
>  <Name>
1-Pentyn-3-ol

>  <IGC50>
1.822

>  <CAS>
4187-86-4

>  <SET>
ws

>  <Species>
Tetrahymena pyriformis

>  <Test duration>
48h

$$$$

  Mrv1808 07152009202D          

  6  5  0  0  0  0            999 V2000
    1.4437    1.2374    0.0000 C   0  0  0  0  0  0  0  0  0  0  0  0
    0.7425    0.8250    0.0000 C   0  0  0  0  0  0  0  0  0  0  0  0
    2.1449    0.8250    0.0000 C   0  0  0  0  0  0  0  0  0  0  0  0
    0.7425    0.0000    0.0000 C   0  0  0  0  0  0  0  0  0  0  0  0
    0.0000    1.2374    0.0000 C   0  0  0  0  0  0  0  0  0  0  0  0
    2.8873    1.2374    0.0000 O   0  0  0  0  0  0  0  0  0  0  0  0
  1  2  1  0  0  0  0
  1  3  1  0  0  0  0
  2  4  1  0  0  0  0
  2  5  2  0  0  0  0
  3  6  1  0  0  0  0
M  END
>  <Name>
3-Buten-1-ol, 3-methyl-

>  <IGC50>
1.82

>  <CAS>
763-32-6

>  <SET>
ws

>  <Species>
Tetrahymena pyriformis

>  <Test duration>
48h

$$$$

  Mrv1808 07152009202D          

  5  4  0  0  0  0            999 V2000
    1.4304    0.0000    0.0000 O   0  0  0  0  0  0  0  0  0  0  0  0
    1.4304   -0.8256    0.0000 C   0  0  0  0  0  0  0  0  0  0  0  0
    0.7142   -1.2374    0.0000 C   0  0  0  0  0  0  0  0  0  0  0  0
    2.1446   -1.2374    0.0000 C   0  0  0  0  0  0  0  0  0  0  0  0
    0.0000   -0.8256    0.0000 Br  0  0  0  0  0  0  0  0  0  0  0  0
  1  2  1  0  0  0  0
  2  3  1  0  0  0  0
  2  4  1  0  0  0  0
  3  5  1  0  0  0  0
M  END
>  <Name>
2-Propanol, 1-bromo-

>  <IGC50>
1.812

>  <CAS>
19686-73-8

>  <SET>
ws

>  <Species>
Tetrahymena pyriformis

>  <Test duration>
48h

$$$$

  Mrv1808 07152009202D          

  7  7  0  0  0  0            999 V2000
    0.7720    1.6727    0.0000 N   0  0  0  0  0  0  0  0  0  0  0  0
    0.0000    1.2438    0.0000 C   0  0  0  0  0  0  0  0  0  0  0  0
    1.4583    1.2009    0.0000 C   0  0  0  0  0  0  0  0  0  0  0  0
    0.0000    0.4289    0.0000 C   0  0  0  0  0  0  0  0  0  0  0  0
    1.4583    0.3860    0.0000 C   0  0  0  0  0  0  0  0  0  0  0  0
    2.1874    1.6298    0.0000 F   0  0  0  0  0  0  0  0  0  0  0  0
    0.7291    0.0000    0.0000 C   0  0  0  0  0  0  0  0  0  0  0  0
  2  1  2  0  0  0  0
  1  3  1  0  0  0  0
  4  2  1  0  0  0  0
  3  5  2  0  0  0  0
  3  6  1  0  0  0  0
  7  4  2  0  0  0  0
  5  7  1  0  0  0  0
M  END
>  <Name>
Pyridine, 2-fluoro-

>  <IGC50>
1.8

>  <CAS>
372-48-5

>  <SET>
ws

>  <Species>
Tetrahymena pyriformis

>  <Test duration>
48h

$$$$

  Mrv1808 07152009203D          

  7  7  0  0  0  0            999 V2000
    4.0431    3.2332    2.5679 C   0  0  0  0  0  0  0  0  0  0  0  0
    2.5585    2.9671    2.4337 C   0  0  1  0  0  0  0  0  0  0  0  0
    2.1694    2.4788    1.0436 C   0  0  0  0  0  0  0  0  0  0  0  0
    2.0673    1.8797    3.3950 C   0  0  0  0  0  0  0  0  0  0  0  0
    2.4815    3.0113    0.0000 O   0  0  0  0  0  0  0  0  0  0  0  0
    1.3157    1.2326    1.1570 C   0  0  0  0  0  0  0  0  0  0  0  0
    1.0193    1.0623    2.6420 C   0  0  0  0  0  0  0  0  0  0  0  0
  1  2  1  0  0  0  0
  3  2  1  0  0  0  0
  2  4  1  0  0  0  0
  3  5  2  0  0  0  0
  6  3  1  0  0  0  0
  4  7  1  0  0  0  0
  6  7  1  0  0  0  0
M  END
>  <Name>
2-methylcyclopentan-1-one

>  <IGC50>
1.8

>  <CAS>
1120-72-5

>  <SET>
ws

>  <Species>
Tetrahymena pyriformis

>  <Test duration>
48h

$$$$

  Mrv1808 07152009202D          

 15 14  0  0  0  0            999 V2000
    2.2687    1.6086    0.0000 C   0  0  0  0  0  0  0  0  0  0  0  0
    3.0936    1.6499    0.0000 C   0  0  0  0  0  0  0  0  0  0  0  0
    1.8974    0.8250    0.0000 C   0  0  0  0  0  0  0  0  0  0  0  0
    1.8562    2.3099    0.0000 N   0  0  0  0  0  0  0  0  0  0  0  0
    3.5885    0.9899    0.0000 O   0  0  0  0  0  0  0  0  0  0  0  0
    3.4648    2.3924    0.0000 O   0  0  0  0  0  0  0  0  0  0  0  0
    1.0724    0.7837    0.0000 O   0  0  0  0  0  0  0  0  0  0  0  0
    2.3511    0.1237    0.0000 O   0  0  0  0  0  0  0  0  0  0  0  0
    1.0724    2.1861    0.0000 C   0  0  0  0  0  0  0  0  0  0  0  0
    4.3723    1.2375    0.0000 C   0  0  0  0  0  0  0  0  0  0  0  0
    0.8250    0.0000    0.0000 C   0  0  0  0  0  0  0  0  0  0  0  0
    0.5775    2.8461    0.0000 C   0  0  0  0  0  0  0  0  0  0  0  0
    0.7425    1.4437    0.0000 O   0  0  0  0  0  0  0  0  0  0  0  0
    4.8673    0.5775    0.0000 C   0  0  0  0  0  0  0  0  0  0  0  0
    0.0000    0.0000    0.0000 C   0  0  0  0  0  0  0  0  0  0  0  0
  1  2  1  0  0  0  0
  1  3  1  0  0  0  0
  1  4  1  0  0  0  0
  2  5  1  0  0  0  0
  2  6  2  0  0  0  0
  3  7  1  0  0  0  0
  3  8  2  0  0  0  0
  4  9  1  0  0  0  0
  5 10  1  0  0  0  0
  7 11  1  0  0  0  0
 12  9  1  0  0  0  0
  9 13  2  0  0  0  0
 14 10  1  0  0  0  0
 15 11  1  0  0  0  0
M  END
>  <Name>
Propanedioic acid, (acetylamino)-, diethyl ester

>  <IGC50>
1.796

>  <CAS>
1068-90-2

>  <SET>
ws

>  <Species>
Tetrahymena pyriformis

>  <Test duration>
48h

$$$$

  Mrv1808 07152009202D          

  7  6  0  0  0  0            999 V2000
    2.8595   -1.2382    0.0000 C   0  0  0  0  0  0  0  0  0  0  0  0
    2.1447   -0.8264    0.0000 C   0  0  0  0  0  0  0  0  0  0  0  0
    2.1447    0.0000    0.0000 O   0  0  0  0  0  0  0  0  0  0  0  0
    1.4298   -1.2382    0.0000 C   0  0  0  0  0  0  0  0  0  0  0  0
    0.7149   -0.8264    0.0000 C   0  0  0  0  0  0  0  0  0  0  0  0
    0.0000   -1.2382    0.0000 C   0  0  0  0  0  0  0  0  0  0  0  0
    0.7149    0.0000    0.0000 C   0  0  0  0  0  0  0  0  0  0  0  0
  1  2  1  0  0  0  0
  2  3  2  0  0  0  0
  2  4  1  0  0  0  0
  4  5  1  0  0  0  0
  5  6  1  0  0  0  0
  5  7  1  0  0  0  0
M  END
>  <Name>
2-Pentanone, 4-methyl-

>  <IGC50>
1.792

>  <CAS>
108-10-1

>  <SET>
ws

>  <Species>
Tetrahymena pyriformis

>  <Test duration>
48h

$$$$

  Mrv1808 07152009202D          

  6  5  0  0  0  0            999 V2000
    2.1751    0.4183    0.0000 C   0  0  0  0  0  0  0  0  0  0  0  0
    1.4222    0.0000    0.0000 C   0  0  0  0  0  0  0  0  0  0  0  0
    2.8862    0.0000    0.0000 C   0  0  0  0  0  0  0  0  0  0  0  0
    0.7111    0.4183    0.0000 C   0  0  0  0  0  0  0  0  0  0  0  0
    3.5973    0.4183    0.0000 O   0  0  0  0  0  0  0  0  0  0  0  0
    0.0000    0.0000    0.0000 C   0  0  0  0  0  0  0  0  0  0  0  0
  1  2  1  0  0  0  0
  1  3  1  0  0  0  0
  2  4  1  0  0  0  0
  3  5  1  0  0  0  0
  4  6  2  0  0  0  0
M  END
>  <Name>
Pent-4-en-1-ol

>  <IGC50>
1.785

>  <CAS>
821-09-0

>  <SET>
ws

>  <Species>
Tetrahymena pyriformis

>  <Test duration>
48h

$$$$

  Mrv1808 07152009202D          

  7  6  0  0  0  0            999 V2000
    2.1750    1.2549    0.0000 C   0  0  0  0  0  0  0  0  0  0  0  0
    2.9280    0.8366    0.0000 O   0  0  0  0  0  0  0  0  0  0  0  0
    1.4640    0.8366    0.0000 C   0  0  0  0  0  0  0  0  0  0  0  0
    2.1750    2.0914    0.0000 N   0  0  0  0  0  0  0  0  0  0  0  0
    1.4640    0.0000    0.0000 Cl  0  0  0  0  0  0  0  0  0  0  0  0
    0.7529    1.2549    0.0000 C   0  0  0  0  0  0  0  0  0  0  0  0
    0.0000    0.8366    0.0000 C   0  0  0  0  0  0  0  0  0  0  0  0
  1  2  2  0  0  0  0
  1  3  1  0  0  0  0
  1  4  1  0  0  0  0
  3  5  1  0  0  0  0
  3  6  1  0  0  0  0
  7  6  1  0  0  0  0
M  END
>  <Name>
2-Chlorobutyramide

>  <IGC50>
1.783

>  <CAS>
7462-73-9

>  <SET>
ws

>  <Species>
Tetrahymena pyriformis

>  <Test duration>
48h

$$$$

  Mrv1808 07152009202D          

  7  6  0  0  0  0            999 V2000
    0.0000   -1.4293    0.0000 O   0  0  0  0  0  0  0  0  0  0  0  0
    0.8250   -1.4293    0.0000 C   0  0  0  0  0  0  0  0  0  0  0  0
    1.2364   -0.7135    0.0000 C   0  0  0  0  0  0  0  0  0  0  0  0
    1.2364   -2.1428    0.0000 O   0  0  0  0  0  0  0  0  0  0  0  0
    2.0614   -0.7135    0.0000 C   0  0  0  0  0  0  0  0  0  0  0  0
    0.8250    0.0000    0.0000 C   0  0  0  0  0  0  0  0  0  0  0  0
    2.0614   -2.1428    0.0000 C   0  0  0  0  0  0  0  0  0  0  0  0
  1  2  2  0  0  0  0
  2  3  1  0  0  0  0
  2  4  1  0  0  0  0
  3  5  2  0  0  0  0
  3  6  1  0  0  0  0
  4  7  1  0  0  0  0
M  END
>  <Name>
2-Propenoic acid, 2-methyl-, methyl ester

>  <IGC50>
1.78

>  <CAS>
80-62-6

>  <SET>
ws

>  <Species>
Tetrahymena pyriformis

>  <Test duration>
48h

$$$$

  Mrv1808 07152009202D          

  8  7  0  0  0  0            999 V2000
    2.8862    0.0000    0.0000 C   0  0  0  0  0  0  0  0  0  0  0  0
    2.1750    0.4183    0.0000 S   0  0  0  0  0  0  0  0  0  0  0  0
    3.6390    0.4183    0.0000 C   0  0  0  0  0  0  0  0  0  0  0  0
    1.4640    0.0000    0.0000 C   0  0  0  0  0  0  0  0  0  0  0  0
    2.1750    1.2548    0.0000 O   0  0  0  0  0  0  0  0  0  0  0  0
    4.3501    0.0000    0.0000 C   0  0  0  0  0  0  0  0  0  0  0  0
    0.7110    0.4183    0.0000 C   0  0  0  0  0  0  0  0  0  0  0  0
    0.0000    0.0000    0.0000 C   0  0  0  0  0  0  0  0  0  0  0  0
  1  2  1  0  0  0  0
  1  3  1  0  0  0  0
  2  4  1  0  0  0  0
  2  5  2  0  0  0  0
  3  6  1  0  0  0  0
  4  7  1  0  0  0  0
  7  8  1  0  0  0  0
M  END
>  <Name>
Propyl sulfoxide (8CI)

>  <IGC50>
1.78

>  <CAS>
4253-91-2

>  <SET>
ws

>  <Species>
Tetrahymena pyriformis

>  <Test duration>
48h

$$$$

  Mrv1808 07152009202D          

  8  7  0  0  0  0            999 V2000
    1.4289   -1.6391    0.0000 C   0  0  0  0  0  0  0  0  0  0  0  0
    1.4289   -2.4622    0.0000 O   0  0  0  0  0  0  0  0  0  0  0  0
    2.1344   -1.2329    0.0000 O   0  0  0  0  0  0  0  0  0  0  0  0
    0.7162   -1.2329    0.0000 C   0  0  0  0  0  0  0  0  0  0  0  0
    2.8470   -1.6391    0.0000 C   0  0  0  0  0  0  0  0  0  0  0  0
    0.7162   -0.4062    0.0000 C   0  0  0  0  0  0  0  0  0  0  0  0
    3.5632   -1.2222    0.0000 C   0  0  0  0  0  0  0  0  0  0  0  0
    0.0000    0.0000    0.0000 N   0  0  0  0  0  0  0  0  0  0  0  0
  1  2  2  0  0  0  0
  1  3  1  0  0  0  0
  1  4  1  0  0  0  0
  3  5  1  0  0  0  0
  4  6  1  0  0  0  0
  5  7  1  0  0  0  0
  6  8  3  0  0  0  0
M  END
>  <Name>
Acetic acid, 2-cyano-, ethyl ester

>  <IGC50>
1.77

>  <CAS>
105-56-6

>  <SET>
ws

>  <Species>
Tetrahymena pyriformis

>  <Test duration>
48h

$$$$

  Mrv1808 07152009202D          

  7  7  0  0  0  0            999 V2000
    0.0000   -0.7135    0.0000 O   0  0  0  0  0  0  0  0  0  0  0  0
    0.8250   -0.7135    0.0000 C   0  0  0  0  0  0  0  0  0  0  0  0
    1.2387    0.0000    0.0000 C   0  0  0  0  0  0  0  0  0  0  0  0
    1.2387   -1.4295    0.0000 C   0  0  0  0  0  0  0  0  0  0  0  0
    2.0637    0.0000    0.0000 C   0  0  0  0  0  0  0  0  0  0  0  0
    2.0637   -1.4295    0.0000 C   0  0  0  0  0  0  0  0  0  0  0  0
    2.4775   -0.7135    0.0000 C   0  0  0  0  0  0  0  0  0  0  0  0
  1  2  2  0  0  0  0
  2  3  1  0  0  0  0
  2  4  1  0  0  0  0
  3  5  1  0  0  0  0
  6  4  1  0  0  0  0
  5  7  1  0  0  0  0
  7  6  1  0  0  0  0
M  END
>  <Name>
Cyclohexanone

>  <IGC50>
1.767

>  <CAS>
108-94-1

>  <SET>
ws

>  <Species>
Tetrahymena pyriformis

>  <Test duration>
48h

$$$$

  Mrv1808 07152009203D          

  7  6  0  0  0  0            999 V2000
    0.2988    0.3181    0.0343 C   0  0  0  0  0  0  0  0  0  0  0  0
    1.4370   -0.6314    0.1263 C   0  0  0  0  0  0  0  0  0  0  0  0
    0.4338    1.5223   -0.1327 O   0  0  0  0  0  0  0  0  0  0  0  0
   -1.0317   -0.1937    0.2469 N   0  0  1  0  0  0  0  0  0  0  0  0
    2.6987   -0.2443   -0.0349 C   0  0  0  0  0  0  0  0  0  0  0  0
   -2.1674    0.7304    0.0292 C   0  0  0  0  0  0  0  0  0  0  0  0
   -1.3161   -1.5756   -0.1983 C   0  0  0  0  0  0  0  0  0  0  0  0
  1  2  1  0  0  0  0
  1  3  2  0  0  0  0
  1  4  1  0  0  0  0
  2  5  2  0  0  0  0
  4  6  1  0  0  0  0
  4  7  1  0  0  0  0
M  END
>  <Name>
2-Propenamide, N,N-dimethyl-

>  <IGC50>
1.764

>  <CAS>
2680-03-7

>  <SET>
ws

>  <Species>
Tetrahymena pyriformis

>  <Test duration>
48h

$$$$

  Mrv1808 07152009202D          

  7  6  0  0  0  0            999 V2000
    3.5761   -1.2373    0.0000 C   0  0  0  0  0  0  0  0  0  0  0  0
    2.8609   -0.8261    0.0000 C   0  0  0  0  0  0  0  0  0  0  0  0
    2.8609    0.0000    0.0000 O   0  0  0  0  0  0  0  0  0  0  0  0
    2.1457   -1.2373    0.0000 O   0  0  0  0  0  0  0  0  0  0  0  0
    1.4305   -0.8261    0.0000 C   0  0  0  0  0  0  0  0  0  0  0  0
    0.7152   -1.2373    0.0000 C   0  0  0  0  0  0  0  0  0  0  0  0
    0.0000   -0.8261    0.0000 C   0  0  0  0  0  0  0  0  0  0  0  0
  1  2  1  0  0  0  0
  2  3  2  0  0  0  0
  2  4  1  0  0  0  0
  4  5  1  0  0  0  0
  5  6  1  0  0  0  0
  6  7  1  0  0  0  0
M  END
>  <Name>
Acetic acid, propyl ester

>  <IGC50>
1.762

>  <CAS>
109-60-4

>  <SET>
ws

>  <Species>
Tetrahymena pyriformis

>  <Test duration>
48h

$$$$

  Mrv1808 07152009202D          

  8  8  0  0  0  0            999 V2000
    0.0000    0.0000    0.0000 C   0  0  0  0  0  0  0  0  0  0  0  0
    0.4125    0.7425    0.0000 C   0  0  0  0  0  0  0  0  0  0  0  0
    1.2375    0.7425    0.0000 C   0  0  0  0  0  0  0  0  0  0  0  0
    1.6912    1.4025    0.0000 O   0  0  0  0  0  0  0  0  0  0  0  0
    1.6912    0.0825    0.0000 C   0  0  0  0  0  0  0  0  0  0  0  0
    2.4750    1.1550    0.0000 C   0  0  0  0  0  0  0  0  0  0  0  0
    2.4750    0.3300    0.0000 C   0  0  0  0  0  0  0  0  0  0  0  0
    3.1762    1.6500    0.0000 O   0  0  0  0  0  0  0  0  0  0  0  0
  1  2  1  0  0  0  0
  2  3  1  0  0  0  0
  4  3  1  0  0  0  0
  3  5  1  0  0  0  0
  6  4  1  0  0  0  0
  5  7  1  0  0  0  0
  7  6  1  0  0  0  0
  6  8  2  0  0  0  0
M  END
>  <Name>
2(3H)-Furanone, 5-ethyldihydro-

>  <IGC50>
1.76

>  <CAS>
695-06-7

>  <SET>
ws

>  <Species>
Tetrahymena pyriformis

>  <Test duration>
48h

$$$$

  Mrv1808 07152009203D          

  6  5  0  0  0  0            999 V2000
    2.5083    0.1381   -0.3101 C   0  0  0  0  0  0  0  0  0  0  0  0
    1.2438    0.7324    0.2692 C   0  0  0  0  0  0  0  0  0  0  0  0
   -0.0068   -0.0352   -0.1974 C   0  0  2  0  0  0  0  0  0  0  0  0
   -1.2788    0.6231    0.3552 C   0  0  0  0  0  0  0  0  0  0  0  0
    0.0008   -1.3811    0.2470 O   0  0  0  0  0  0  0  0  0  0  0  0
   -2.5258    0.1378   -0.3486 C   0  0  0  0  0  0  0  0  0  0  0  0
  1  2  1  0  0  0  0
  2  3  1  0  0  0  0
  3  4  1  0  0  0  0
  3  5  1  0  0  0  0
  4  6  1  0  0  0  0
M  END
>  <Name>
3-Pentanol

>  <IGC50>
1.756

>  <CAS>
584-02-1

>  <SET>
ws

>  <Species>
Tetrahymena pyriformis

>  <Test duration>
48h

$$$$

  Mrv1808 07152009202D          

  7  6  0  0  0  0            999 V2000
    1.4221    0.0000    0.0000 C   0  0  0  0  0  0  0  0  0  0  0  0
    2.1750    0.4183    0.0000 C   0  0  0  0  0  0  0  0  0  0  0  0
    0.7111    0.4183    0.0000 C   0  0  0  0  0  0  0  0  0  0  0  0
    2.8861    0.0000    0.0000 O   0  0  0  0  0  0  0  0  0  0  0  0
    2.1750    1.2548    0.0000 O   0  0  0  0  0  0  0  0  0  0  0  0
    0.0000    0.0000    0.0000 C   0  0  0  0  0  0  0  0  0  0  0  0
    3.5972    0.4183    0.0000 C   0  0  0  0  0  0  0  0  0  0  0  0
  1  2  1  0  0  0  0
  1  3  1  0  0  0  0
  2  4  1  0  0  0  0
  2  5  2  0  0  0  0
  3  6  1  0  0  0  0
  4  7  1  0  0  0  0
M  END
>  <Name>
Butanoic acid, methyl ester

>  <IGC50>
1.754

>  <CAS>
623-42-7

>  <SET>
ws

>  <Species>
Tetrahymena pyriformis

>  <Test duration>
48h

$$$$

  Mrv1808 07152009202D          

  5  4  0  0  0  0            999 V2000
    2.1446   -1.2374    0.0000 C   0  0  0  0  0  0  0  0  0  0  0  0
    1.4304   -0.8256    0.0000 C   0  0  0  0  0  0  0  0  0  0  0  0
    0.7142   -1.2374    0.0000 N   0  0  0  0  0  0  0  0  0  0  0  0
    1.4304    0.0000    0.0000 C   0  0  0  0  0  0  0  0  0  0  0  0
    0.0000   -0.8256    0.0000 O   0  0  0  0  0  0  0  0  0  0  0  0
  1  2  1  0  0  0  0
  2  3  2  0  0  0  0
  2  4  1  0  0  0  0
  3  5  1  0  0  0  0
M  END
>  <Name>
2-Propanone, oxime

>  <IGC50>
1.752

>  <CAS>
127-06-0

>  <SET>
ws

>  <Species>
Tetrahymena pyriformis

>  <Test duration>
48h

$$$$

  Mrv1808 07152009202D          

  8  8  0  0  0  0            999 V2000
    1.1495    0.0000    0.0000 O   0  0  0  0  0  0  0  0  0  0  0  0
    1.7682   -0.5307    0.0000 C   0  0  0  0  0  0  0  0  0  0  0  0
    0.3647   -0.1660    0.0000 C   0  0  0  0  0  0  0  0  0  0  0  0
    1.7682   -1.3557    0.0000 C   0  0  0  0  0  0  0  0  0  0  0  0
    2.5152   -0.1861    0.0000 O   0  0  0  0  0  0  0  0  0  0  0  0
    0.0000   -0.9331    0.0000 C   0  0  0  0  0  0  0  0  0  0  0  0
    1.1495   -1.8462    0.0000 C   0  0  0  0  0  0  0  0  0  0  0  0
    0.3647   -1.6902    0.0000 C   0  0  0  0  0  0  0  0  0  0  0  0
  1  2  1  0  0  0  0
  1  3  1  0  0  0  0
  2  4  1  0  0  0  0
  2  5  2  0  0  0  0
  6  3  1  0  0  0  0
  4  7  1  0  0  0  0
  8  6  1  0  0  0  0
  7  8  1  0  0  0  0
M  END
>  <Name>
Hexanoic acid, epsilon-lactone

>  <IGC50>
1.739

>  <CAS>
502-44-3

>  <SET>
ws

>  <Species>
Tetrahymena pyriformis

>  <Test duration>
48h

$$$$

  Mrv1808 07152009202D          

  8  7  0  0  0  0            999 V2000
    2.1750    1.2548    0.0000 C   0  0  0  0  0  0  0  0  0  0  0  0
    1.4640    0.8366    0.0000 C   0  0  0  0  0  0  0  0  0  0  0  0
    2.8862    0.8366    0.0000 C   0  0  0  0  0  0  0  0  0  0  0  0
    0.7110    1.2548    0.0000 C   0  0  0  0  0  0  0  0  0  0  0  0
    1.4640    0.0000    0.0000 O   0  0  0  0  0  0  0  0  0  0  0  0
    3.6390    1.2548    0.0000 C   0  0  0  0  0  0  0  0  0  0  0  0
    0.0000    0.8366    0.0000 O   0  0  0  0  0  0  0  0  0  0  0  0
    4.3501    0.8366    0.0000 C   0  0  0  0  0  0  0  0  0  0  0  0
  1  2  1  0  0  0  0
  1  3  1  0  0  0  0
  2  4  1  0  0  0  0
  2  5  1  0  0  0  0
  3  6  1  0  0  0  0
  4  7  1  0  0  0  0
  6  8  1  0  0  0  0
M  END
>  <Name>
1,2-Hexanediol

>  <IGC50>
1.733

>  <CAS>
6920-22-5

>  <SET>
ws

>  <Species>
Tetrahymena pyriformis

>  <Test duration>
48h

$$$$

  Mrv1808 07152009202D          

  8  7  0  0  0  0            999 V2000
    0.7137   -1.2382    0.0000 C   0  0  0  0  0  0  0  0  0  0  0  0
    0.7137   -2.0625    0.0000 O   0  0  0  0  0  0  0  0  0  0  0  0
    1.4273   -0.8243    0.0000 O   0  0  0  0  0  0  0  0  0  0  0  0
    0.0000   -0.8243    0.0000 C   0  0  0  0  0  0  0  0  0  0  0  0
    2.1410   -1.2382    0.0000 C   0  0  0  0  0  0  0  0  0  0  0  0
    2.8546   -0.8243    0.0000 C   0  0  0  0  0  0  0  0  0  0  0  0
    2.8546    0.0000    0.0000 C   0  0  0  0  0  0  0  0  0  0  0  0
    3.5683   -1.2382    0.0000 C   0  0  0  0  0  0  0  0  0  0  0  0
  1  2  2  0  0  0  0
  1  3  1  0  0  0  0
  1  4  1  0  0  0  0
  3  5  1  0  0  0  0
  5  6  1  0  0  0  0
  6  7  1  0  0  0  0
  6  8  1  0  0  0  0
M  END
>  <Name>
Acetic acid, 2-methylpropyl ester

>  <IGC50>
1.73

>  <CAS>
110-19-0

>  <SET>
ws

>  <Species>
Tetrahymena pyriformis

>  <Test duration>
48h

$$$$

  Mrv1808 07152009202D          

  8  7  0  0  0  0            999 V2000
    1.4221    1.2548    0.0000 O   0  0  0  0  0  0  0  0  0  0  0  0
    2.1749    0.8365    0.0000 C   0  0  0  0  0  0  0  0  0  0  0  0
    0.7110    0.8365    0.0000 C   0  0  0  0  0  0  0  0  0  0  0  0
    2.8860    1.2548    0.0000 C   0  0  0  0  0  0  0  0  0  0  0  0
    2.1749    0.0000    0.0000 O   0  0  0  0  0  0  0  0  0  0  0  0
    0.0000    1.2548    0.0000 C   0  0  0  0  0  0  0  0  0  0  0  0
    2.8860    2.0913    0.0000 C   0  0  0  0  0  0  0  0  0  0  0  0
    3.5970    0.8365    0.0000 C   0  0  0  0  0  0  0  0  0  0  0  0
  1  2  1  0  0  0  0
  1  3  1  0  0  0  0
  2  4  1  0  0  0  0
  2  5  2  0  0  0  0
  3  6  1  0  0  0  0
  4  7  1  0  0  0  0
  4  8  1  0  0  0  0
M  END
>  <Name>
Propanoic acid, 2-methyl-, ethyl ester

>  <IGC50>
1.729

>  <CAS>
97-62-1

>  <SET>
ws

>  <Species>
Tetrahymena pyriformis

>  <Test duration>
48h

$$$$

  Mrv1808 07152009202D          

  9  8  0  0  0  0            999 V2000
    1.4342   -0.8288    0.0000 C   0  0  0  0  0  0  0  0  0  0  0  0
    2.1513   -1.2367    0.0000 C   0  0  0  0  0  0  0  0  0  0  0  0
    0.7171   -1.2367    0.0000 O   0  0  0  0  0  0  0  0  0  0  0  0
    1.4342    0.0000    0.0000 O   0  0  0  0  0  0  0  0  0  0  0  0
    2.8599   -0.8288    0.0000 C   0  0  0  0  0  0  0  0  0  0  0  0
    0.0000   -0.8288    0.0000 C   0  0  0  0  0  0  0  0  0  0  0  0
    3.5770   -1.2367    0.0000 O   0  0  0  0  0  0  0  0  0  0  0  0
    2.8599    0.0000    0.0000 O   0  0  0  0  0  0  0  0  0  0  0  0
    4.2941   -0.8288    0.0000 C   0  0  0  0  0  0  0  0  0  0  0  0
  1  2  1  0  0  0  0
  1  3  1  0  0  0  0
  1  4  2  0  0  0  0
  2  5  1  0  0  0  0
  3  6  1  0  0  0  0
  5  7  1  0  0  0  0
  5  8  2  0  0  0  0
  7  9  1  0  0  0  0
M  END
>  <Name>
Propanedioic acid, dimethyl ester

>  <IGC50>
1.713

>  <CAS>
108-59-8

>  <SET>
ws

>  <Species>
Tetrahymena pyriformis

>  <Test duration>
48h

$$$$

  Mrv1808 07152009202D          

  7  6  0  0  0  0            999 V2000
    0.0000    0.0000    0.0000 O   0  0  0  0  0  0  0  0  0  0  0  0
    0.7111    0.3765    0.0000 C   0  0  0  0  0  0  0  0  0  0  0  0
    1.4222    0.0000    0.0000 C   0  0  0  0  0  0  0  0  0  0  0  0
    2.1751    0.3765    0.0000 C   0  0  0  0  0  0  0  0  0  0  0  0
    2.8863    0.0000    0.0000 C   0  0  0  0  0  0  0  0  0  0  0  0
    3.6391    0.3765    0.0000 C   0  0  0  0  0  0  0  0  0  0  0  0
    4.3503    0.7947    0.0000 C   0  0  0  0  0  0  0  0  0  0  0  0
  1  2  1  0  0  0  0
  2  3  1  0  0  0  0
  3  4  1  0  0  0  0
  4  5  1  0  0  0  0
  5  6  1  0  0  0  0
  6  7  3  0  0  0  0
M  END
>  <Name>
5-Hexyn-1-ol

>  <IGC50>
1.705

>  <CAS>
928-90-5

>  <SET>
ws

>  <Species>
Tetrahymena pyriformis

>  <Test duration>
48h

$$$$

  Mrv1808 07152009202D          

  6  5  0  0  0  0            999 V2000
    2.8596   -1.2382    0.0000 C   0  0  0  0  0  0  0  0  0  0  0  0
    2.1447   -0.8264    0.0000 C   0  0  0  0  0  0  0  0  0  0  0  0
    2.1447    0.0000    0.0000 O   0  0  0  0  0  0  0  0  0  0  0  0
    1.4298   -1.2382    0.0000 O   0  0  0  0  0  0  0  0  0  0  0  0
    0.7149   -0.8264    0.0000 C   0  0  0  0  0  0  0  0  0  0  0  0
    0.0000   -1.2382    0.0000 C   0  0  0  0  0  0  0  0  0  0  0  0
  1  2  1  0  0  0  0
  2  3  2  0  0  0  0
  2  4  1  0  0  0  0
  4  5  1  0  0  0  0
  5  6  1  0  0  0  0
M  END
>  <Name>
Acetic acid ethyl ester

>  <IGC50>
1.703

>  <CAS>
141-78-6

>  <SET>
ws

>  <Species>
Tetrahymena pyriformis

>  <Test duration>
48h

$$$$

  Mrv1808 07152009202D          

  8  7  0  0  0  0            999 V2000
    1.4334   -0.8242    0.0000 C   0  0  0  0  0  0  0  0  0  0  0  0
    1.4334    0.0000    0.0000 O   0  0  0  0  0  0  0  0  0  0  0  0
    0.7167   -1.2328    0.0000 C   0  0  0  0  0  0  0  0  0  0  0  0
    2.1502   -1.2328    0.0000 N   0  0  0  0  0  0  0  0  0  0  0  0
    0.0000   -0.8242    0.0000 C   0  0  0  0  0  0  0  0  0  0  0  0
    2.8669   -0.8242    0.0000 C   0  0  0  0  0  0  0  0  0  0  0  0
    3.5837   -1.2328    0.0000 C   0  0  0  0  0  0  0  0  0  0  0  0
    2.8669    0.0000    0.0000 C   0  0  0  0  0  0  0  0  0  0  0  0
  1  2  2  0  0  0  0
  1  3  1  0  0  0  0
  1  4  1  0  0  0  0
  3  5  2  0  0  0  0
  4  6  1  0  0  0  0
  6  7  1  0  0  0  0
  6  8  1  0  0  0  0
M  END
>  <Name>
2-Propenamide, N-(1-methylethyl)-

>  <IGC50>
1.693

>  <CAS>
2210-25-5

>  <SET>
ws

>  <Species>
Tetrahymena pyriformis

>  <Test duration>
48h

$$$$

  Mrv1808 07152009202D          

  6  5  0  0  0  0            999 V2000
    0.0000   -1.6525    0.0000 C   0  0  0  0  0  0  0  0  0  0  0  0
    0.8250   -1.6525    0.0000 C   0  0  0  0  0  0  0  0  0  0  0  0
    1.6525   -1.6525    0.0000 O   0  0  0  0  0  0  0  0  0  0  0  0
    0.8250   -2.4775    0.0000 C   0  0  0  0  0  0  0  0  0  0  0  0
    0.8250   -0.8250    0.0000 C   0  0  0  0  0  0  0  0  0  0  0  0
    0.8250    0.0000    0.0000 C   0  0  0  0  0  0  0  0  0  0  0  0
  1  2  1  0  0  0  0
  2  3  1  0  0  0  0
  2  4  1  0  0  0  0
  2  5  1  0  0  0  0
  5  6  3  0  0  0  0
M  END
>  <Name>
3-Butyn-2-ol, 2-methyl-

>  <IGC50>
1.689

>  <CAS>
115-19-5

>  <SET>
ws

>  <Species>
Tetrahymena pyriformis

>  <Test duration>
48h

$$$$

  Mrv1808 07152009202D          

  4  3  0  0  0  0            999 V2000
    1.2371    0.0000    0.0000 N   0  0  0  0  0  0  0  0  0  0  0  0
    0.8243   -0.7143    0.0000 C   0  0  0  0  0  0  0  0  0  0  0  0
    1.2371   -1.4286    0.0000 S   0  0  0  0  0  0  0  0  0  0  0  0
    0.0000   -0.7143    0.0000 N   0  0  0  0  0  0  0  0  0  0  0  0
  1  2  1  0  0  0  0
  2  3  2  0  0  0  0
  2  4  1  0  0  0  0
M  END
>  <Name>
Urea, thio- (8CI)

>  <IGC50>
1.68

>  <CAS>
62-56-6

>  <SET>
ws

>  <Species>
Tetrahymena pyriformis

>  <Test duration>
48h

$$$$

  Mrv1808 07152009202D          

  6  6  0  0  0  0            999 V2000
    1.4289   -1.2375    0.0000 N   0  0  0  0  0  0  0  0  0  0  0  0
    0.7145   -1.6500    0.0000 C   0  0  0  0  0  0  0  0  0  0  0  0
    1.4289   -0.4125    0.0000 C   0  0  0  0  0  0  0  0  0  0  0  0
    0.0000   -1.2375    0.0000 C   0  0  0  0  0  0  0  0  0  0  0  0
    0.7145    0.0000    0.0000 C   0  0  0  0  0  0  0  0  0  0  0  0
    0.0000   -0.4125    0.0000 C   0  0  0  0  0  0  0  0  0  0  0  0
  1  2  2  0  0  0  0
  1  3  1  0  0  0  0
  2  4  1  0  0  0  0
  5  3  2  0  0  0  0
  4  6  2  0  0  0  0
  6  5  1  0  0  0  0
M  END
>  <Name>
Pyridine

>  <IGC50>
1.68

>  <CAS>
110-86-1

>  <SET>
ws

>  <Species>
Tetrahymena pyriformis

>  <Test duration>
48h

$$$$

  Mrv1808 07152009203D          

  7  7  0  0  0  0            999 V2000
    2.0062    1.7756    0.6577 C   0  0  0  0  0  0  0  0  0  0  0  0
    0.7450    1.0151    0.6283 C   0  0  0  0  0  0  0  0  0  0  0  0
    3.2332    1.3242    0.3442 C   0  0  0  0  0  0  0  0  0  0  0  0
    2.0204    3.2191    1.0772 C   0  0  0  0  0  0  0  0  0  0  0  0
    4.2366    2.4075    0.5131 C   0  0  0  0  0  0  0  0  0  0  0  0
    3.4893    3.6484    0.9877 C   0  0  0  0  0  0  0  0  0  0  0  0
    5.4293    2.3257    0.3127 O   0  0  0  0  0  0  0  0  0  0  0  0
  1  2  1  0  0  0  0
  3  1  2  0  0  0  0
  1  4  1  0  0  0  0
  5  3  1  0  0  0  0
  4  6  1  0  0  0  0
  6  5  1  0  0  0  0
  5  7  2  0  0  0  0
M  END
>  <Name>
3-methylcyclopent-2-en-1-one

>  <IGC50>
1.68

>  <CAS>
2758-18-1

>  <SET>
ws

>  <Species>
Tetrahymena pyriformis

>  <Test duration>
48h

$$$$

  Mrv1808 07152009203D          

  6  5  0  0  0  0            999 V2000
    0.8337    2.6197    2.9434 C   0  0  0  0  0  0  0  0  0  0  0  0
    0.0000    3.0908    3.5954 N   0  0  0  0  0  0  0  0  0  0  0  0
    1.8876    2.0242    2.1190 C   0  0  1  0  0  0  0  0  0  0  0  0
    1.5078    2.1777    0.6452 C   0  0  0  0  0  0  0  0  0  0  0  0
    3.2043    2.7498    2.4011 C   0  0  0  0  0  0  0  0  0  0  0  0
    2.0166    0.5427    2.4775 C   0  0  0  0  0  0  0  0  0  0  0  0
  1  2  3  0  0  0  0
  1  3  1  0  0  0  0
  3  4  1  0  0  0  0
  3  5  1  0  0  0  0
  3  6  1  0  0  0  0
M  END
>  <Name>
Propanenitrile, 2,2-dimethyl-

>  <IGC50>
1.675

>  <CAS>
630-18-2

>  <SET>
ws

>  <Species>
Tetrahymena pyriformis

>  <Test duration>
48h

$$$$

  Mrv1808 07152009202D          

  7  6  0  0  0  0            999 V2000
    2.1502   -0.8242    0.0000 C   0  0  0  0  0  0  0  0  0  0  0  0
    2.1502    0.0000    0.0000 O   0  0  0  0  0  0  0  0  0  0  0  0
    2.8669   -1.2328    0.0000 O   0  0  0  0  0  0  0  0  0  0  0  0
    1.4334   -1.2328    0.0000 C   0  0  0  0  0  0  0  0  0  0  0  0
    3.5837   -0.8242    0.0000 C   0  0  0  0  0  0  0  0  0  0  0  0
    0.7168   -0.8135    0.0000 C   0  0  0  0  0  0  0  0  0  0  0  0
    0.0000   -0.3978    0.0000 N   0  0  0  0  0  0  0  0  0  0  0  0
  1  2  2  0  0  0  0
  1  3  1  0  0  0  0
  1  4  1  0  0  0  0
  3  5  1  0  0  0  0
  4  6  1  0  0  0  0
  6  7  3  0  0  0  0
M  END
>  <Name>
methyl 2-cyanoacetate

>  <IGC50>
1.66

>  <CAS>
105-34-0

>  <SET>
ws

>  <Species>
Tetrahymena pyriformis

>  <Test duration>
48h

$$$$

  Mrv1808 07152009202D          

  7  6  0  0  0  0            999 V2000
    0.0000   -0.8261    0.0000 C   0  0  0  0  0  0  0  0  0  0  0  0
    0.7152   -1.2373    0.0000 C   0  0  0  0  0  0  0  0  0  0  0  0
    1.4305   -0.8261    0.0000 C   0  0  0  0  0  0  0  0  0  0  0  0
    2.1457   -1.2373    0.0000 C   0  0  0  0  0  0  0  0  0  0  0  0
    2.8609   -0.8261    0.0000 C   0  0  0  0  0  0  0  0  0  0  0  0
    2.8609    0.0000    0.0000 O   0  0  0  0  0  0  0  0  0  0  0  0
    3.5761   -1.2373    0.0000 C   0  0  0  0  0  0  0  0  0  0  0  0
  1  2  1  0  0  0  0
  2  3  1  0  0  0  0
  3  4  1  0  0  0  0
  4  5  1  0  0  0  0
  5  6  2  0  0  0  0
  5  7  1  0  0  0  0
M  END
>  <Name>
2-Hexanone

>  <IGC50>
1.657

>  <CAS>
591-78-6

>  <SET>
ws

>  <Species>
Tetrahymena pyriformis

>  <Test duration>
48h

$$$$

  Mrv1808 07152009202D          

  6  5  0  0  0  0            999 V2000
    0.7426    0.0000    0.0000 C   0  0  0  0  0  0  0  0  0  0  0  0
    1.4439    0.4125    0.0000 C   0  0  0  0  0  0  0  0  0  0  0  0
    0.0000    0.4125    0.0000 C   0  0  0  0  0  0  0  0  0  0  0  0
    2.1451    0.0000    0.0000 C   0  0  0  0  0  0  0  0  0  0  0  0
    1.4439    1.2375    0.0000 O   0  0  0  0  0  0  0  0  0  0  0  0
    2.8876    0.4125    0.0000 C   0  0  0  0  0  0  0  0  0  0  0  0
  1  2  1  0  0  0  0
  1  3  1  0  0  0  0
  2  4  1  0  0  0  0
  2  5  1  0  0  0  0
  4  6  2  0  0  0  0
M  END
>  <Name>
1-Penten-3-ol

>  <IGC50>
1.653

>  <CAS>
616-25-1

>  <SET>
ws

>  <Species>
Tetrahymena pyriformis

>  <Test duration>
48h

$$$$

  Mrv1808 07152009202D          

  7  6  0  0  0  0            999 V2000
    1.4298   -1.1267    0.0000 O   0  0  0  0  0  0  0  0  0  0  0  0
    2.1447   -0.7149    0.0000 C   0  0  0  0  0  0  0  0  0  0  0  0
    0.7149   -0.7149    0.0000 C   0  0  0  0  0  0  0  0  0  0  0  0
    2.5565   -1.4298    0.0000 C   0  0  0  0  0  0  0  0  0  0  0  0
    1.7329    0.0000    0.0000 C   0  0  0  0  0  0  0  0  0  0  0  0
    2.8595   -0.3031    0.0000 C   0  0  0  0  0  0  0  0  0  0  0  0
    0.0000   -1.1267    0.0000 O   0  0  0  0  0  0  0  0  0  0  0  0
  1  2  1  0  0  0  0
  1  3  1  0  0  0  0
  2  4  1  0  0  0  0
  2  5  1  0  0  0  0
  2  6  1  0  0  0  0
  3  7  2  0  0  0  0
M  END
>  <Name>
Formic acid, 1,1-dimethylethyl ester

>  <IGC50>
1.628

>  <CAS>
762-75-4

>  <SET>
ws

>  <Species>
Tetrahymena pyriformis

>  <Test duration>
48h

$$$$

  Mrv1808 07152009202D          

  5  4  0  0  0  0            999 V2000
    0.0000   -0.8250    0.0000 O   0  0  0  0  0  0  0  0  0  0  0  0
    0.7136   -1.2364    0.0000 C   0  0  0  0  0  0  0  0  0  0  0  0
    1.4293   -0.8250    0.0000 C   0  0  0  0  0  0  0  0  0  0  0  0
    1.4293    0.0000    0.0000 C   0  0  0  0  0  0  0  0  0  0  0  0
    2.1429   -1.2364    0.0000 C   0  0  0  0  0  0  0  0  0  0  0  0
  1  2  1  0  0  0  0
  2  3  1  0  0  0  0
  3  4  1  0  0  0  0
  3  5  1  0  0  0  0
M  END
>  <Name>
1-Propanol, 2-methyl-

>  <IGC50>
1.628

>  <CAS>
78-83-1

>  <SET>
ws

>  <Species>
Tetrahymena pyriformis

>  <Test duration>
48h

$$$$

  Mrv1808 07152009202D          

 12 11  0  0  0  0            999 V2000
    1.5011    1.6298    0.0000 C   0  0  0  0  0  0  0  0  0  0  0  0
    1.5011    2.4875    0.0000 O   0  0  0  0  0  0  0  0  0  0  0  0
    0.7291    1.2438    0.0000 N   0  0  0  0  0  0  0  0  0  0  0  0
    2.2302    1.2438    0.0000 C   0  0  0  0  0  0  0  0  0  0  0  0
    0.0000    1.6298    0.0000 N   0  0  0  0  0  0  0  0  0  0  0  0
    2.9594    1.6298    0.0000 C   0  0  0  0  0  0  0  0  0  0  0  0
    3.6884    1.2438    0.0000 C   0  0  0  0  0  0  0  0  0  0  0  0
    4.4176    1.6298    0.0000 C   0  0  0  0  0  0  0  0  0  0  0  0
    5.1467    1.2438    0.0000 C   0  0  0  0  0  0  0  0  0  0  0  0
    5.9187    1.6727    0.0000 O   0  0  0  0  0  0  0  0  0  0  0  0
    5.1467    0.4289    0.0000 N   0  0  0  0  0  0  0  0  0  0  0  0
    5.9187    0.0000    0.0000 N   0  0  0  0  0  0  0  0  0  0  0  0
  1  2  2  0  0  0  0
  1  3  1  0  0  0  0
  1  4  1  0  0  0  0
  3  5  1  0  0  0  0
  4  6  1  0  0  0  0
  6  7  1  0  0  0  0
  7  8  1  0  0  0  0
  8  9  1  0  0  0  0
  9 10  2  0  0  0  0
  9 11  1  0  0  0  0
 11 12  1  0  0  0  0
M  END
>  <Name>
Adipic acid, dihydrazide (8CI)

>  <IGC50>
1.626

>  <CAS>
1071-93-8

>  <SET>
ws

>  <Species>
Tetrahymena pyriformis

>  <Test duration>
48h

$$$$

  Mrv1808 07152009202D          

  8  7  0  0  0  0            999 V2000
    0.0000    0.0000    0.0000 O   0  0  0  0  0  0  0  0  0  0  0  0
    0.7157   -0.4104    0.0000 C   0  0  0  0  0  0  0  0  0  0  0  0
    1.4314    0.0000    0.0000 C   0  0  0  0  0  0  0  0  0  0  0  0
    2.1471   -0.4104    0.0000 O   0  0  0  0  0  0  0  0  0  0  0  0
    2.8478    0.0000    0.0000 C   0  0  0  0  0  0  0  0  0  0  0  0
    3.5734   -0.4104    0.0000 C   0  0  0  0  0  0  0  0  0  0  0  0
    4.2791    0.0000    0.0000 C   0  0  0  0  0  0  0  0  0  0  0  0
    5.0048   -0.4104    0.0000 C   0  0  0  0  0  0  0  0  0  0  0  0
  1  2  1  0  0  0  0
  2  3  1  0  0  0  0
  4  3  1  0  0  0  0
  4  5  1  0  0  0  0
  5  6  1  0  0  0  0
  6  7  1  0  0  0  0
  7  8  1  0  0  0  0
M  END
>  <Name>
Ethanol, 2-butoxy-

>  <IGC50>
1.626

>  <CAS>
111-76-2

>  <SET>
ws

>  <Species>
Tetrahymena pyriformis

>  <Test duration>
48h

$$$$

  Mrv1808 07152009203D          

  6  5  0  0  0  0            999 V2000
    1.7927    1.9551    1.5038 C   0  0  0  0  0  0  0  0  0  0  0  0
    3.2777    2.1297    1.7225 C   0  0  2  0  0  0  0  0  0  0  0  0
    1.0673    1.0266    2.1153 C   0  0  0  0  0  0  0  0  0  0  0  0
    3.7493    3.4549    1.1058 C   0  0  0  0  0  0  0  0  0  0  0  0
    4.0378    0.9619    1.0774 C   0  0  0  0  0  0  0  0  0  0  0  0
    3.4780    2.1450    3.1333 O   0  0  0  0  0  0  0  0  0  0  0  0
  1  2  1  0  0  0  0
  1  3  2  0  0  0  0
  2  4  1  0  0  0  0
  2  5  1  0  0  0  0
  2  6  1  0  0  0  0
M  END
>  <Name>
3-Butyn-2-ol, 2-methyl- (8CI,9CI)

>  <IGC50>
1.611

>  <CAS>
115-18-4

>  <SET>
ws

>  <Species>
Tetrahymena pyriformis

>  <Test duration>
48h

$$$$

  Mrv1808 07152009202D          

  5  4  0  0  0  0            999 V2000
    1.4298   -0.4118    0.0000 C   0  0  0  0  0  0  0  0  0  0  0  0
    0.7149    0.0000    0.0000 C   0  0  0  0  0  0  0  0  0  0  0  0
    2.1447    0.0000    0.0000 C   0  0  0  0  0  0  0  0  0  0  0  0
    0.0000   -0.4118    0.0000 Cl  0  0  0  0  0  0  0  0  0  0  0  0
    2.8595   -0.4118    0.0000 O   0  0  0  0  0  0  0  0  0  0  0  0
  1  2  1  0  0  0  0
  1  3  1  0  0  0  0
  2  4  1  0  0  0  0
  3  5  1  0  0  0  0
M  END
>  <Name>
1-Propanol, 3-chloro-

>  <IGC50>
1.601

>  <CAS>
627-30-5

>  <SET>
ws

>  <Species>
Tetrahymena pyriformis

>  <Test duration>
48h

$$$$

  Mrv1808 07152009202D          

 10  9  0  0  0  0            999 V2000
    0.0000    0.8130    0.0000 C   0  0  0  0  0  0  0  0  0  0  0  0
    0.7317    1.2195    0.0000 C   0  0  0  0  0  0  0  0  0  0  0  0
    1.4227    0.8130    0.0000 C   0  0  0  0  0  0  0  0  0  0  0  0
    0.7317    2.0324    0.0000 O   0  0  0  0  0  0  0  0  0  0  0  0
    2.1137    1.2195    0.0000 C   0  0  0  0  0  0  0  0  0  0  0  0
    2.8454    0.8130    0.0000 C   0  0  0  0  0  0  0  0  0  0  0  0
    3.5365    1.2195    0.0000 O   0  0  0  0  0  0  0  0  0  0  0  0
    2.8454    0.0000    0.0000 O   0  0  0  0  0  0  0  0  0  0  0  0
    4.2274    0.8130    0.0000 C   0  0  0  0  0  0  0  0  0  0  0  0
    4.9591    1.2195    0.0000 C   0  0  0  0  0  0  0  0  0  0  0  0
  1  2  1  0  0  0  0
  2  3  1  0  0  0  0
  2  4  2  0  0  0  0
  3  5  1  0  0  0  0
  5  6  1  0  0  0  0
  6  7  1  0  0  0  0
  6  8  2  0  0  0  0
  7  9  1  0  0  0  0
  9 10  1  0  0  0  0
M  END
>  <Name>
Pentanoic acid, 4-oxo-, ethyl ester

>  <IGC50>
1.6

>  <CAS>
539-88-8

>  <SET>
ws

>  <Species>
Tetrahymena pyriformis

>  <Test duration>
48h

$$$$

  Mrv1808 07152009203D          

  6  5  0  0  0  0            999 V2000
    2.9203    1.5686    2.3520 C   0  0  0  0  0  0  0  0  0  0  0  0
    3.6708    0.9212    3.4861 C   0  0  2  0  0  0  0  0  0  0  0  0
    1.7437    1.1140    1.9212 C   0  0  0  0  0  0  0  0  0  0  0  0
    3.8117    1.9040    4.6450 C   0  0  0  0  0  0  0  0  0  0  0  0
    4.9824    0.5572    3.0884 O   0  0  0  0  0  0  0  0  0  0  0  0
    0.9893    1.7449    0.8163 C   0  0  0  0  0  0  0  0  0  0  0  0
  1  2  1  0  0  0  0
  1  3  2  0  0  0  0
  2  4  1  0  0  0  0
  2  5  1  0  0  0  0
  3  6  1  0  0  0  0
M  END
>  <Name>
3-Penten-2-ol

>  <IGC50>
1.599

>  <CAS>
1569-50-2

>  <SET>
ws

>  <Species>
Tetrahymena pyriformis

>  <Test duration>
48h

$$$$

  Mrv1808 07152009203D          

  7  6  0  0  0  0            999 V2000
    4.6414    2.4099    1.5352 C   0  0  0  0  0  0  0  0  0  0  0  0
    3.4234    1.4776    1.3617 C   0  0  2  0  0  0  0  0  0  0  0  0
    5.8793    1.7301    1.2564 C   0  0  0  0  0  0  0  0  0  0  0  0
    2.1223    2.2704    1.5537 C   0  0  0  0  0  0  0  0  0  0  0  0
    3.4234    0.4366    2.3199 O   0  0  0  0  0  0  0  0  0  0  0  0
    6.9094    1.1778    1.0249 C   0  0  0  0  0  0  0  0  0  0  0  0
    0.9126    1.5094    1.0595 C   0  0  0  0  0  0  0  0  0  0  0  0
  1  2  1  0  0  0  0
  1  3  1  0  0  0  0
  2  4  1  0  0  0  0
  2  5  1  0  0  0  0
  3  6  3  0  0  0  0
  4  7  1  0  0  0  0
M  END
>  <Name>
5-Hexyn-3-ol

>  <IGC50>
1.596

>  <CAS>
19780-84-8

>  <SET>
ws

>  <Species>
Tetrahymena pyriformis

>  <Test duration>
48h

$$$$

  Mrv1808 07152009203D          

  6  6  0  0  0  0            999 V2000
    1.0469    1.5883    1.8549 C   0  0  0  0  0  0  0  0  0  0  0  0
    2.2257    0.8480    1.7834 C   0  0  0  0  0  0  0  0  0  0  0  0
    0.8899    2.6545    0.9722 C   0  0  0  0  0  0  0  0  0  0  0  0
    3.1744    1.2200    0.8334 C   0  0  0  0  0  0  0  0  0  0  0  0
    1.8635    2.9614    0.0663 N   0  0  0  0  0  0  0  0  0  0  0  0
    2.9519    2.2776    0.0000 N   0  0  0  0  0  0  0  0  0  0  0  0
  2  1  2  0  0  0  0
  1  3  1  0  0  0  0
  4  2  1  0  0  0  0
  3  5  2  0  0  0  0
  6  4  2  0  0  0  0
  5  6  1  0  0  0  0
M  END
>  <Name>
pyridazine

>  <IGC50>
1.59

>  <CAS>
289-80-5

>  <SET>
ws

>  <Species>
Tetrahymena pyriformis

>  <Test duration>
48h

$$$$

  Mrv1808 07152009202D          

  4  3  0  0  0  0            999 V2000
    0.0000    0.0000    0.0000 Cl  0  0  0  0  0  0  0  0  0  0  0  0
    0.7131   -0.4111    0.0000 C   0  0  0  0  0  0  0  0  0  0  0  0
    1.4283    0.0000    0.0000 C   0  0  0  0  0  0  0  0  0  0  0  0
    2.1415   -0.4111    0.0000 O   0  0  0  0  0  0  0  0  0  0  0  0
  1  2  1  0  0  0  0
  2  3  1  0  0  0  0
  3  4  1  0  0  0  0
M  END
>  <Name>
Ethanol, 2-chloro-

>  <IGC50>
1.583

>  <CAS>
107-07-3

>  <SET>
ws

>  <Species>
Tetrahymena pyriformis

>  <Test duration>
48h

$$$$

  Mrv1808 07152009202D          

  6  5  0  0  0  0            999 V2000
    0.0000    0.7720    0.0000 C   0  0  0  0  0  0  0  0  0  0  0  0
    0.7291    0.3860    0.0000 C   0  0  0  0  0  0  0  0  0  0  0  0
    1.5440    0.0000    0.0000 C   0  0  0  0  0  0  0  0  0  0  0  0
    2.2302    0.4289    0.0000 C   0  0  0  0  0  0  0  0  0  0  0  0
    2.9593    0.0429    0.0000 C   0  0  0  0  0  0  0  0  0  0  0  0
    3.6884    0.4717    0.0000 O   0  0  0  0  0  0  0  0  0  0  0  0
  1  2  3  0  0  0  0
  2  3  1  0  0  0  0
  3  4  1  0  0  0  0
  4  5  1  0  0  0  0
  5  6  1  0  0  0  0
M  END
>  <Name>
Pent-4-yn-1-ol

>  <IGC50>
1.58

>  <CAS>
5390-04-5

>  <SET>
ws

>  <Species>
Tetrahymena pyriformis

>  <Test duration>
48h

$$$$

  Mrv1808 07152009202D          

  5  4  0  0  0  0            999 V2000
    0.0000   -0.4118    0.0000 C   0  0  0  0  0  0  0  0  0  0  0  0
    0.7149    0.0000    0.0000 C   0  0  0  0  0  0  0  0  0  0  0  0
    1.4298   -0.4118    0.0000 C   0  0  0  0  0  0  0  0  0  0  0  0
    2.1447    0.0000    0.0000 C   0  0  0  0  0  0  0  0  0  0  0  0
    2.8595   -0.4118    0.0000 O   0  0  0  0  0  0  0  0  0  0  0  0
  1  2  1  0  0  0  0
  2  3  1  0  0  0  0
  3  4  1  0  0  0  0
  4  5  1  0  0  0  0
M  END
>  <Name>
Butyl alcohol

>  <IGC50>
1.569

>  <CAS>
71-36-3

>  <SET>
ws

>  <Species>
Tetrahymena pyriformis

>  <Test duration>
48h

$$$$

  Mrv1808 07152009202D          

  5  5  0  0  0  0            999 V2000
    1.0796    0.0000    0.0000 C   0  0  0  0  0  0  0  0  0  0  0  0
    1.3344   -0.7846    0.0000 C   0  0  0  0  0  0  0  0  0  0  0  0
    0.2549    0.0000    0.0000 C   0  0  0  0  0  0  0  0  0  0  0  0
    0.6673   -1.2691    0.0000 S   0  0  0  0  0  0  0  0  0  0  0  0
    0.0000   -0.7846    0.0000 C   0  0  0  0  0  0  0  0  0  0  0  0
  1  2  2  0  0  0  0
  1  3  1  0  0  0  0
  2  4  1  0  0  0  0
  5  3  2  0  0  0  0
  4  5  1  0  0  0  0
M  END
>  <Name>
Thiophene

>  <IGC50>
1.56

>  <CAS>
110-02-1

>  <SET>
ws

>  <Species>
Tetrahymena pyriformis

>  <Test duration>
48h

$$$$

  Mrv1808 07152009203D          

  8  8  0  0  0  0            999 V2000
   -0.6533    1.0777   -0.0023 O   0  0  0  0  0  0  0  0  0  0  0  0
    0.0126   -0.1067    0.0025 C   0  0  0  0  0  0  0  0  0  0  0  0
   -1.9789    0.7783   -0.0038 C   0  0  0  0  0  0  0  0  0  0  0  0
   -0.8732   -1.1590    0.0042 C   0  0  0  0  0  0  0  0  0  0  0  0
    1.4352   -0.0704    0.0047 C   0  0  0  0  0  0  0  0  0  0  0  0
   -2.1665   -0.5843    0.0002 C   0  0  0  0  0  0  0  0  0  0  0  0
    2.1415   -1.1139   -0.0076 O   0  0  0  0  0  0  0  0  0  0  0  0
    2.0825    1.1785    0.0021 N   0  0  0  0  0  0  0  0  0  0  0  0
  1  2  1  0  0  0  0
  1  3  1  0  0  0  0
  2  4  2  0  0  0  0
  2  5  1  0  0  0  0
  6  3  2  0  0  0  0
  4  6  1  0  0  0  0
  7  5  2  0  0  0  0
  8  5  1  0  0  0  0
M  END
>  <Name>
furan-2-carboxamide

>  <IGC50>
1.56

>  <CAS>
609-38-1

>  <SET>
ws

>  <Species>
Tetrahymena pyriformis

>  <Test duration>
48h

$$$$

  Mrv1808 07152009202D          

  5  4  0  0  0  0            999 V2000
    0.8250    0.0000    0.0000 C   0  0  0  0  0  0  0  0  0  0  0  0
    1.6500    0.0000    0.0000 C   0  0  0  0  0  0  0  0  0  0  0  0
    0.0000    0.0000    0.0000 N   0  0  0  0  0  0  0  0  0  0  0  0
    2.0596   -0.7068    0.0000 C   0  0  0  0  0  0  0  0  0  0  0  0
    2.8846   -0.7068    0.0000 C   0  0  0  0  0  0  0  0  0  0  0  0
  1  2  1  0  0  0  0
  1  3  3  0  0  0  0
  2  4  1  0  0  0  0
  4  5  1  0  0  0  0
M  END
>  <Name>
Butanenitrile

>  <IGC50>
1.559

>  <CAS>
109-74-0

>  <SET>
ws

>  <Species>
Tetrahymena pyriformis

>  <Test duration>
48h

$$$$

  Mrv1808 07152009203D          

  6  5  0  0  0  0            999 V2000
    1.3766   -1.3385   -0.6097 Cl  0  0  0  0  0  0  0  0  0  0  0  0
    0.6625   -0.1061    0.4634 C   0  0  1  0  0  0  0  0  0  0  0  0
    1.4780    1.1745    0.3889 C   0  0  0  0  0  0  0  0  0  0  0  0
   -0.7669    0.1002    0.0011 C   0  0  0  0  0  0  0  0  0  0  0  0
   -1.0988    0.9669   -0.8040 O   0  0  0  0  0  0  0  0  0  0  0  0
   -1.6516   -0.7969    0.5601 N   0  0  0  0  0  0  0  0  0  0  0  0
  1  2  1  0  0  0  0
  2  3  1  0  0  0  0
  2  4  1  0  0  0  0
  5  4  2  0  0  0  0
  6  4  1  0  0  0  0
M  END
>  <Name>
2-chloropropanamide

>  <IGC50>
1.558

>  <CAS>
27816-36-0

>  <SET>
ws

>  <Species>
Tetrahymena pyriformis

>  <Test duration>
48h

$$$$

  Mrv1808 07152009202D          

  6  5  0  0  0  0            999 V2000
    2.0625    0.0000    0.0000 C   0  0  0  0  0  0  0  0  0  0  0  0
    1.2375    0.0000    0.0000 C   0  0  0  0  0  0  0  0  0  0  0  0
    0.8250   -0.7157    0.0000 C   0  0  0  0  0  0  0  0  0  0  0  0
    0.0000   -0.7157    0.0000 O   0  0  0  0  0  0  0  0  0  0  0  0
    1.2375   -1.4293    0.0000 C   0  0  0  0  0  0  0  0  0  0  0  0
    2.0625   -1.4293    0.0000 C   0  0  0  0  0  0  0  0  0  0  0  0
  1  2  1  0  0  0  0
  2  3  1  0  0  0  0
  3  4  2  0  0  0  0
  3  5  1  0  0  0  0
  5  6  1  0  0  0  0
M  END
>  <Name>
3-Pentanone

>  <IGC50>
1.544

>  <CAS>
96-22-0

>  <SET>
ws

>  <Species>
Tetrahymena pyriformis

>  <Test duration>
48h

$$$$

  Mrv1808 07152009203D          

  5  4  0  0  0  0            999 V2000
    1.2261    0.5123    0.1091 C   0  0  0  0  0  0  0  0  0  0  0  0
   -0.0857   -0.2051    0.1724 C   0  0  0  0  0  0  0  0  0  0  0  0
    2.3172   -0.3485   -0.0856 O   0  0  0  0  0  0  0  0  0  0  0  0
   -1.2384    0.4026   -0.1107 C   0  0  0  0  0  0  0  0  0  0  0  0
   -2.5512   -0.2731   -0.0220 C   0  0  0  0  0  0  0  0  0  0  0  0
  1  2  1  0  0  0  0
  1  3  1  0  0  0  0
  2  4  2  0  0  0  0
  4  5  1  0  0  0  0
M  END
>  <Name>
2-Buten-1-ol

>  <IGC50>
1.528

>  <CAS>
6117-91-5

>  <SET>
ws

>  <Species>
Tetrahymena pyriformis

>  <Test duration>
48h

$$$$

  Mrv1808 07152009202D          

  5  4  0  0  0  0            999 V2000
    2.8906    0.0000    0.0000 C   0  0  0  0  0  0  0  0  0  0  0  0
    2.0639    0.0000    0.0000 C   0  0  0  0  0  0  0  0  0  0  0  0
    1.6505   -0.7140    0.0000 C   0  0  0  0  0  0  0  0  0  0  0  0
    0.8267   -0.7140    0.0000 C   0  0  0  0  0  0  0  0  0  0  0  0
    0.0000   -0.7140    0.0000 N   0  0  0  0  0  0  0  0  0  0  0  0
  1  2  2  0  0  0  0
  2  3  1  0  0  0  0
  3  4  1  0  0  0  0
  4  5  3  0  0  0  0
M  END
>  <Name>
3-Butenenitrile

>  <IGC50>
1.521

>  <CAS>
109-75-1

>  <SET>
ws

>  <Species>
Tetrahymena pyriformis

>  <Test duration>
48h

$$$$

  Mrv1808 07152009202D          

  8  7  0  0  0  0            999 V2000
    0.7149    0.0000    0.0000 O   0  0  0  0  0  0  0  0  0  0  0  0
    0.7149   -0.8264    0.0000 C   0  0  0  0  0  0  0  0  0  0  0  0
    1.4298   -1.2382    0.0000 O   0  0  0  0  0  0  0  0  0  0  0  0
    0.0000   -1.2382    0.0000 C   0  0  0  0  0  0  0  0  0  0  0  0
    2.1446   -0.8264    0.0000 C   0  0  0  0  0  0  0  0  0  0  0  0
    1.7328   -0.1115    0.0000 C   0  0  0  0  0  0  0  0  0  0  0  0
    2.8595   -0.4146    0.0000 C   0  0  0  0  0  0  0  0  0  0  0  0
    2.5564   -1.5413    0.0000 C   0  0  0  0  0  0  0  0  0  0  0  0
  1  2  2  0  0  0  0
  2  3  1  0  0  0  0
  2  4  1  0  0  0  0
  3  5  1  0  0  0  0
  5  6  1  0  0  0  0
  5  7  1  0  0  0  0
  5  8  1  0  0  0  0
M  END
>  <Name>
Acetic acid, 1,1-dimethylethyl ester

>  <IGC50>
1.51

>  <CAS>
540-88-5

>  <SET>
ws

>  <Species>
Tetrahymena pyriformis

>  <Test duration>
48h

$$$$

  Mrv1808 07152009202D          

  5  4  0  0  0  0            999 V2000
    0.0000   -0.8362    0.0000 Cl  0  0  0  0  0  0  0  0  0  0  0  0
    0.7158   -1.2445    0.0000 C   0  0  0  0  0  0  0  0  0  0  0  0
    1.4337   -0.8362    0.0000 C   0  0  0  0  0  0  0  0  0  0  0  0
    1.4337    0.0000    0.0000 O   0  0  0  0  0  0  0  0  0  0  0  0
    2.1494   -1.2445    0.0000 C   0  0  0  0  0  0  0  0  0  0  0  0
  1  2  1  0  0  0  0
  2  3  1  0  0  0  0
  3  4  1  0  0  0  0
  3  5  1  0  0  0  0
M  END
>  <Name>
2-Propanol, 1-chloro-

>  <IGC50>
1.508

>  <CAS>
127-00-4

>  <SET>
ws

>  <Species>
Tetrahymena pyriformis

>  <Test duration>
48h

$$$$

  Mrv1808 07152009202D          

  8  7  0  0  0  0            999 V2000
    0.0000   -1.4290    0.0000 C   0  0  0  0  0  0  0  0  0  0  0  0
    0.8250   -1.4290    0.0000 C   0  0  0  0  0  0  0  0  0  0  0  0
    1.2375   -0.7161    0.0000 N   0  0  0  0  0  0  0  0  0  0  0  0
    2.0626   -0.7161    0.0000 C   0  0  0  0  0  0  0  0  0  0  0  0
    0.8250    0.0000    0.0000 C   0  0  0  0  0  0  0  0  0  0  0  0
    2.4751   -1.4290    0.0000 C   0  0  0  0  0  0  0  0  0  0  0  0
    0.0000    0.0000    0.0000 C   0  0  0  0  0  0  0  0  0  0  0  0
    3.3001   -1.4290    0.0000 O   0  0  0  0  0  0  0  0  0  0  0  0
  1  2  1  0  0  0  0
  2  3  1  0  0  0  0
  3  4  1  0  0  0  0
  3  5  1  0  0  0  0
  4  6  1  0  0  0  0
  5  7  1  0  0  0  0
  6  8  1  0  0  0  0
M  END
>  <Name>
Ethanol, 2-(diethylamino)-

>  <IGC50>
1.505

>  <CAS>
100-37-8

>  <SET>
ws

>  <Species>
Tetrahymena pyriformis

>  <Test duration>
48h

$$$$

  Mrv1808 07152009202D          

  8  7  0  0  0  0            999 V2000
    0.7272    0.0000    0.0000 C   0  0  0  0  0  0  0  0  0  0  0  0
    1.4493   -0.3989    0.0000 C   0  0  0  0  0  0  0  0  0  0  0  0
    0.0000   -0.3989    0.0000 O   0  0  0  0  0  0  0  0  0  0  0  0
    2.1564    0.0000    0.0000 C   0  0  0  0  0  0  0  0  0  0  0  0
    2.8735   -0.3989    0.0000 C   0  0  0  0  0  0  0  0  0  0  0  0
    3.6007    0.0000    0.0000 C   0  0  0  0  0  0  0  0  0  0  0  0
    4.3229   -0.3989    0.0000 C   0  0  0  0  0  0  0  0  0  0  0  0
    5.0501    0.0000    0.0000 O   0  0  0  0  0  0  0  0  0  0  0  0
  1  2  1  0  0  0  0
  1  3  1  0  0  0  0
  2  4  1  0  0  0  0
  4  5  1  0  0  0  0
  5  6  1  0  0  0  0
  6  7  1  0  0  0  0
  7  8  1  0  0  0  0
M  END
>  <Name>
1,6-Hexanediol

>  <IGC50>
1.505

>  <CAS>
629-11-8

>  <SET>
ws

>  <Species>
Tetrahymena pyriformis

>  <Test duration>
48h

$$$$

  Mrv1808 07152009203D          

  7  6  0  0  0  0            999 V2000
    1.3534   -1.3669    0.1369 O   0  0  0  0  0  0  0  0  0  0  0  0
    1.4350   -0.1463    0.0272 C   0  0  0  0  0  0  0  0  0  0  0  0
    0.4267    0.7632    0.2571 N   0  0  0  0  0  0  0  0  0  0  0  0
    2.7052    0.5280   -0.4174 C   0  0  0  0  0  0  0  0  0  0  0  0
   -0.9125    0.3662    0.6752 C   0  0  0  0  0  0  0  0  0  0  0  0
   -1.7987    0.1255   -0.5443 C   0  0  0  0  0  0  0  0  0  0  0  0
   -3.2091   -0.2698   -0.1346 C   0  0  0  0  0  0  0  0  0  0  0  0
  1  2  2  0  0  0  0
  3  2  1  0  0  0  0
  2  4  1  0  0  0  0
  3  5  1  0  0  0  0
  5  6  1  0  0  0  0
  6  7  1  0  0  0  0
M  END
>  <Name>
N-propylacetamide

>  <IGC50>
1.502

>  <CAS>
5331-48-6

>  <SET>
ws

>  <Species>
Tetrahymena pyriformis

>  <Test duration>
48h

$$$$

  Mrv1808 07152009203D          

 11 11  0  0  0  0            999 V2000
    0.3879    1.7998    2.0963 C   0  0  0  0  0  0  0  0  0  0  0  0
    0.8817    3.1226    1.5554 C   0  0  0  0  0  0  0  0  0  0  0  0
    0.3039    0.7968    1.1899 O   0  0  0  0  0  0  0  0  0  0  0  0
    0.0447    1.5175    3.2294 O   0  0  0  0  0  0  0  0  0  0  0  0
    2.3607    3.2436    1.7295 C   0  0  0  0  0  0  0  0  0  0  0  0
    2.8731    3.9948    2.7927 C   0  0  0  0  0  0  0  0  0  0  0  0
    3.2341    2.6301    0.8327 C   0  0  0  0  0  0  0  0  0  0  0  0
    4.2413    4.1315    2.9647 C   0  0  0  0  0  0  0  0  0  0  0  0
    4.6095    2.7508    0.9893 C   0  0  0  0  0  0  0  0  0  0  0  0
    5.1094    3.4997    2.0614 C   0  0  0  0  0  0  0  0  0  0  0  0
    6.4459    3.6707    2.2910 O   0  0  0  0  0  0  0  0  0  0  0  0
  1  2  1  0  0  0  0
  1  3  1  0  0  0  0
  1  4  2  0  0  0  0
  2  5  1  0  0  0  0
  5  6  2  0  0  0  0
  7  5  1  0  0  0  0
  6  8  1  0  0  0  0
  9  7  2  0  0  0  0
  8 10  2  0  0  0  0
 10  9  1  0  0  0  0
 10 11  1  0  0  0  0
M  END
>  <Name>
2-(4-hydroxyphenyl)acetic acid

>  <IGC50>
1.5

>  <CAS>
156-38-7

>  <SET>
ws

>  <Species>
Tetrahymena pyriformis

>  <Test duration>
48h

$$$$

  Mrv1808 07152009202D          

 17 18  0  0  0  0            999 V2000
    2.1446   -1.6528    0.0000 C   0  0  0  0  0  0  0  0  0  0  0  0
    1.4297   -1.2410    0.0000 C   0  0  0  0  0  0  0  0  0  0  0  0
    2.8595   -1.2410    0.0000 N   0  3  0  0  0  0  0  0  0  0  0  0
    1.4297   -0.4118    0.0000 C   0  0  0  0  0  0  0  0  0  0  0  0
    0.7149   -1.6528    0.0000 S   0  0  0  0  0  0  0  0  0  0  0  0
    2.8595   -0.4118    0.0000 C   0  0  0  0  0  0  0  0  0  0  0  0
    3.5743   -1.6528    0.0000 C   0  0  0  0  0  0  0  0  0  0  0  0
    2.1446    0.0000    0.0000 C   0  0  0  0  0  0  0  0  0  0  0  0
    1.1266   -2.3677    0.0000 O   0  0  0  0  0  0  0  0  0  0  0  0
    0.3031   -0.9379    0.0000 O   0  0  0  0  0  0  0  0  0  0  0  0
    0.0000   -2.0646    0.0000 O   0  5  0  0  0  0  0  0  0  0  0  0
    4.2892   -1.2410    0.0000 C   0  0  0  0  0  0  0  0  0  0  0  0
    4.2892   -0.4118    0.0000 C   0  0  0  0  0  0  0  0  0  0  0  0
    5.0040   -1.6528    0.0000 C   0  0  0  0  0  0  0  0  0  0  0  0
    5.0040    0.0000    0.0000 C   0  0  0  0  0  0  0  0  0  0  0  0
    5.7189   -1.2410    0.0000 C   0  0  0  0  0  0  0  0  0  0  0  0
    5.7189   -0.4118    0.0000 C   0  0  0  0  0  0  0  0  0  0  0  0
  1  2  1  0  0  0  0
  1  3  2  0  0  0  0
  2  4  2  0  0  0  0
  2  5  1  0  0  0  0
  6  3  1  0  0  0  0
  3  7  1  0  0  0  0
  4  8  1  0  0  0  0
  5  9  2  0  0  0  0
  5 10  2  0  0  0  0
  5 11  1  0  0  0  0
  8  6  2  0  0  0  0
  7 12  1  0  0  0  0
 12 13  1  0  0  0  0
 12 14  2  0  0  0  0
 13 15  2  0  0  0  0
 16 14  1  0  0  0  0
 15 17  1  0  0  0  0
 17 16  2  0  0  0  0
M  CHG  2   3   1  11  -1
M  END
>  <Name>
1-(Benzyl)-3-sulphonatopyridinium

>  <IGC50>
1.5

>  <CAS>
69723-94-0

>  <SET>
ws

>  <Species>
Tetrahymena pyriformis

>  <Test duration>
48h

$$$$

  Mrv1808 07152009202D          

  6  5  0  0  0  0            999 V2000
    1.4437    1.2375    0.0000 C   0  0  0  0  0  0  0  0  0  0  0  0
    2.1450    0.8250    0.0000 C   0  0  0  0  0  0  0  0  0  0  0  0
    0.7425    0.8662    0.0000 C   0  0  0  0  0  0  0  0  0  0  0  0
    2.1450    0.0000    0.0000 C   0  0  0  0  0  0  0  0  0  0  0  0
    2.8875    1.2375    0.0000 O   0  0  0  0  0  0  0  0  0  0  0  0
    0.0000    1.2787    0.0000 C   0  0  0  0  0  0  0  0  0  0  0  0
  1  2  1  0  0  0  0
  1  3  1  0  0  0  0
  2  4  1  0  0  0  0
  2  5  1  0  0  0  0
  3  6  2  0  0  0  0
M  END
>  <Name>
4-Penten-2-ol

>  <IGC50>
1.483

>  <CAS>
625-31-0

>  <SET>
ws

>  <Species>
Tetrahymena pyriformis

>  <Test duration>
48h

$$$$

  Mrv1808 07152009203D          

  7  6  0  0  0  0            999 V2000
    1.6801   -1.9767    0.3008 O   0  0  0  0  0  0  0  0  0  0  0  0
    0.5110   -2.0327   -0.5217 C   0  0  1  0  0  0  0  0  0  0  0  0
    0.1297   -0.6015   -0.9076 C   0  0  0  0  0  0  0  0  0  0  0  0
    0.8024   -2.9255   -1.7259 C   0  0  0  0  0  0  0  0  0  0  0  0
   -1.0923   -0.5549   -1.6990 N   0  0  0  0  0  0  0  0  0  0  0  0
    1.1764   -4.2184   -1.2602 O   0  0  0  0  0  0  0  0  0  0  0  0
   -1.4629    0.8203   -2.0043 C   0  0  0  0  0  0  0  0  0  0  0  0
  1  2  1  0  0  0  0
  2  3  1  0  0  0  0
  2  4  1  0  0  0  0
  5  3  1  0  0  0  0
  6  4  1  0  0  0  0
  5  7  1  0  0  0  0
M  END
>  <Name>
3-(Methylamino)propane-1,2-diol

>  <IGC50>
1.466

>  <CAS>
40137-22-2

>  <SET>
ws

>  <Species>
Tetrahymena pyriformis

>  <Test duration>
48h

$$$$

  Mrv1808 07152009202D          

  8  7  0  0  0  0            999 V2000
    0.0000   -1.2325    0.0000 N   0  0  0  0  0  0  0  0  0  0  0  0
    0.7135   -0.8233    0.0000 C   0  0  0  0  0  0  0  0  0  0  0  0
    1.4271   -0.4092    0.0000 C   0  0  0  0  0  0  0  0  0  0  0  0
    2.1406   -0.8233    0.0000 C   0  0  0  0  0  0  0  0  0  0  0  0
    2.8492   -0.4092    0.0000 C   0  0  0  0  0  0  0  0  0  0  0  0
    3.5627   -0.8233    0.0000 C   0  0  0  0  0  0  0  0  0  0  0  0
    4.2763   -0.4092    0.0000 C   0  0  0  0  0  0  0  0  0  0  0  0
    4.9898    0.0000    0.0000 N   0  0  0  0  0  0  0  0  0  0  0  0
  1  2  3  0  0  0  0
  2  3  1  0  0  0  0
  3  4  1  0  0  0  0
  4  5  1  0  0  0  0
  5  6  1  0  0  0  0
  6  7  1  0  0  0  0
  7  8  3  0  0  0  0
M  END
>  <Name>
Hexanedinitrile

>  <IGC50>
1.462

>  <CAS>
111-69-3

>  <SET>
ws

>  <Species>
Tetrahymena pyriformis

>  <Test duration>
48h

$$$$

  Mrv1808 07152009202D          

  8  7  0  0  0  0            999 V2000
    2.4775   -0.7160    0.0000 C   0  0  0  0  0  0  0  0  0  0  0  0
    1.6525   -0.7160    0.0000 C   0  0  0  0  0  0  0  0  0  0  0  0
    1.2388    0.0000    0.0000 O   0  0  0  0  0  0  0  0  0  0  0  0
    1.2388   -1.4295    0.0000 N   0  0  0  0  0  0  0  0  0  0  0  0
    1.6525   -2.1455    0.0000 C   0  0  0  0  0  0  0  0  0  0  0  0
    0.4138   -1.4295    0.0000 C   0  0  0  0  0  0  0  0  0  0  0  0
    2.4775   -2.1455    0.0000 C   0  0  0  0  0  0  0  0  0  0  0  0
    0.0000   -2.1455    0.0000 C   0  0  0  0  0  0  0  0  0  0  0  0
  1  2  1  0  0  0  0
  2  3  2  0  0  0  0
  2  4  1  0  0  0  0
  4  5  1  0  0  0  0
  4  6  1  0  0  0  0
  5  7  1  0  0  0  0
  6  8  1  0  0  0  0
M  END
>  <Name>
Acetamide, N,N-diethyl-

>  <IGC50>
1.458

>  <CAS>
685-91-6

>  <SET>
ws

>  <Species>
Tetrahymena pyriformis

>  <Test duration>
48h

$$$$

  Mrv1808 07152009203D          

  5  4  0  0  0  0            999 V2000
    0.8588    2.9517    1.7527 C   0  0  0  0  0  0  0  0  0  0  0  0
    1.5045    1.7934    1.0268 C   0  0  0  0  0  0  0  0  0  0  0  0
    2.7506    1.2245    1.7207 C   0  0  2  0  0  0  0  0  0  0  0  0
    2.4487    0.7114    3.1276 C   0  0  0  0  0  0  0  0  0  0  0  0
    3.7384    2.2400    1.7213 O   0  0  0  0  0  0  0  0  0  0  0  0
  1  2  1  0  0  0  0
  2  3  1  0  0  0  0
  3  4  1  0  0  0  0
  3  5  1  0  0  0  0
M  END
>  <Name>
1-Methylpropyl alcohol

>  <IGC50>
1.458

>  <CAS>
15892-23-6

>  <SET>
ws

>  <Species>
Tetrahymena pyriformis

>  <Test duration>
48h

$$$$

  Mrv1808 07152009202D          

  9  8  0  0  0  0            999 V2000
    0.0000    0.0000    0.0000 C   0  0  0  0  0  0  0  0  0  0  0  0
    0.7149    0.3785    0.0000 C   0  0  0  0  0  0  0  0  0  0  0  0
    1.4298    0.0000    0.0000 O   0  0  0  0  0  0  0  0  0  0  0  0
    2.1867    0.3785    0.0000 C   0  0  0  0  0  0  0  0  0  0  0  0
    2.9017    0.0000    0.0000 O   0  0  0  0  0  0  0  0  0  0  0  0
    2.1867    1.2195    0.0000 C   0  0  0  0  0  0  0  0  0  0  0  0
    2.1867    2.0606    0.0000 C   0  0  0  0  0  0  0  0  0  0  0  0
    2.9857    1.2195    0.0000 C   0  0  0  0  0  0  0  0  0  0  0  0
    1.3037    1.2616    0.0000 O   0  0  0  0  0  0  0  0  0  0  0  0
  1  2  1  0  0  0  0
  2  3  1  0  0  0  0
  3  4  1  0  0  0  0
  4  5  2  0  0  0  0
  4  6  1  0  0  0  0
  6  7  1  0  0  0  0
  6  8  1  0  0  0  0
  6  9  1  0  0  0  0
M  END
>  <Name>
ethyl 2-hydroxy-2-methylpropanoate

>  <IGC50>
1.43

>  <CAS>
80-55-7

>  <SET>
ws

>  <Species>
Tetrahymena pyriformis

>  <Test duration>
48h

$$$$

  Mrv1808 07152009202D          

  7  6  0  0  0  0            999 V2000
    2.1449    1.2375    0.0000 N   0  0  0  0  0  0  0  0  0  0  0  0
    1.4437    0.8250    0.0000 C   0  0  0  0  0  0  0  0  0  0  0  0
    2.1449    2.0625    0.0000 C   0  0  0  0  0  0  0  0  0  0  0  0
    2.8875    0.8250    0.0000 C   0  0  0  0  0  0  0  0  0  0  0  0
    0.7425    1.2375    0.0000 C   0  0  0  0  0  0  0  0  0  0  0  0
    1.4437    0.0000    0.0000 O   0  0  0  0  0  0  0  0  0  0  0  0
    0.0000    0.8250    0.0000 C   0  0  0  0  0  0  0  0  0  0  0  0
  1  2  1  0  0  0  0
  1  3  1  0  0  0  0
  1  4  1  0  0  0  0
  2  5  1  0  0  0  0
  2  6  2  0  0  0  0
  5  7  1  0  0  0  0
M  END
>  <Name>
N,N-dimethylpropanamide

>  <IGC50>
1.426

>  <CAS>
758-96-3

>  <SET>
ws

>  <Species>
Tetrahymena pyriformis

>  <Test duration>
48h

$$$$

  Mrv1808 07152009202D          

 10  9  0  0  0  0            999 V2000
    0.8250    0.0000    0.0000 C   0  0  0  0  0  0  0  0  0  0  0  0
    0.8250   -0.8292    0.0000 C   0  0  0  0  0  0  0  0  0  0  0  0
    1.6542   -0.8292    0.0000 C   0  0  0  0  0  0  0  0  0  0  0  0
    0.8250   -1.6542    0.0000 O   0  0  0  0  0  0  0  0  0  0  0  0
    0.0000   -0.8292    0.0000 C   0  0  0  0  0  0  0  0  0  0  0  0
    2.4792   -0.8292    0.0000 C   0  0  0  0  0  0  0  0  0  0  0  0
    3.3001   -0.8292    0.0000 C   0  0  0  0  0  0  0  0  0  0  0  0
    4.1251   -0.8292    0.0000 C   0  0  0  0  0  0  0  0  0  0  0  0
    3.3001    0.0000    0.0000 O   0  0  0  0  0  0  0  0  0  0  0  0
    3.3001   -1.6542    0.0000 C   0  0  0  0  0  0  0  0  0  0  0  0
  1  2  1  0  0  0  0
  2  3  1  0  0  0  0
  2  4  1  0  0  0  0
  2  5  1  0  0  0  0
  3  6  3  0  0  0  0
  6  7  1  0  0  0  0
  7  8  1  0  0  0  0
  7  9  1  0  0  0  0
  7 10  1  0  0  0  0
M  END
>  <Name>
3-Hexyne-2,5-diol, 2,5-dimethyl-

>  <IGC50>
1.415

>  <CAS>
142-30-3

>  <SET>
ws

>  <Species>
Tetrahymena pyriformis

>  <Test duration>
48h

$$$$

  Mrv1808 07152009202D          

  7  6  0  0  0  0            999 V2000
    1.4298   -1.2382    0.0000 O   0  0  0  0  0  0  0  0  0  0  0  0
    2.1447   -0.8264    0.0000 C   0  0  0  0  0  0  0  0  0  0  0  0
    0.7149   -0.8264    0.0000 C   0  0  0  0  0  0  0  0  0  0  0  0
    2.1447    0.0000    0.0000 C   0  0  0  0  0  0  0  0  0  0  0  0
    2.8595   -1.2382    0.0000 C   0  0  0  0  0  0  0  0  0  0  0  0
    0.0000   -1.2382    0.0000 C   0  0  0  0  0  0  0  0  0  0  0  0
    0.7149    0.0000    0.0000 O   0  0  0  0  0  0  0  0  0  0  0  0
  1  2  1  0  0  0  0
  1  3  1  0  0  0  0
  2  4  1  0  0  0  0
  2  5  1  0  0  0  0
  3  6  1  0  0  0  0
  3  7  2  0  0  0  0
M  END
>  <Name>
Acetic acid, 1-methylethyl ester

>  <IGC50>
1.41

>  <CAS>
108-21-4

>  <SET>
ws

>  <Species>
Tetrahymena pyriformis

>  <Test duration>
48h

$$$$

  Mrv1808 07152009202D          

  5  4  0  0  0  0            999 V2000
    2.1462   -1.2384    0.0000 C   0  0  0  0  0  0  0  0  0  0  0  0
    1.4315   -0.8263    0.0000 C   0  0  0  0  0  0  0  0  0  0  0  0
    1.4315    0.0000    0.0000 O   0  0  0  0  0  0  0  0  0  0  0  0
    0.7147   -1.2384    0.0000 O   0  0  0  0  0  0  0  0  0  0  0  0
    0.0000   -0.8263    0.0000 C   0  0  0  0  0  0  0  0  0  0  0  0
  1  2  1  0  0  0  0
  2  3  2  0  0  0  0
  2  4  1  0  0  0  0
  4  5  1  0  0  0  0
M  END
>  <Name>
Acetic acid, methyl ester

>  <IGC50>
1.405

>  <CAS>
79-20-9

>  <SET>
ws

>  <Species>
Tetrahymena pyriformis

>  <Test duration>
48h

$$$$

  Mrv1808 07152009202D          

  6  5  0  0  0  0            999 V2000
    1.4347   -0.8293    0.0000 C   0  0  0  0  0  0  0  0  0  0  0  0
    2.1520   -1.2367    0.0000 C   0  0  0  0  0  0  0  0  0  0  0  0
    0.7174   -1.2367    0.0000 O   0  0  0  0  0  0  0  0  0  0  0  0
    1.4347    0.0000    0.0000 O   0  0  0  0  0  0  0  0  0  0  0  0
    2.8694   -0.8293    0.0000 C   0  0  0  0  0  0  0  0  0  0  0  0
    0.0000   -0.8293    0.0000 C   0  0  0  0  0  0  0  0  0  0  0  0
  1  2  1  0  0  0  0
  1  3  1  0  0  0  0
  1  4  2  0  0  0  0
  2  5  1  0  0  0  0
  3  6  1  0  0  0  0
M  END
>  <Name>
Propanoic acid, methyl ester

>  <IGC50>
1.391

>  <CAS>
554-12-1

>  <SET>
ws

>  <Species>
Tetrahymena pyriformis

>  <Test duration>
48h

$$$$

  Mrv1808 07152009202D          

  4  3  0  0  0  0            999 V2000
    0.0000    0.0000    0.0000 C   0  0  0  0  0  0  0  0  0  0  0  0
    0.7147   -0.4121    0.0000 C   0  0  0  0  0  0  0  0  0  0  0  0
    1.4316    0.0000    0.0000 N   0  0  0  0  0  0  0  0  0  0  0  0
    2.1464   -0.4121    0.0000 O   0  0  0  0  0  0  0  0  0  0  0  0
  1  2  1  0  0  0  0
  2  3  2  0  0  0  0
  3  4  1  0  0  0  0
M  END
>  <Name>
Acetaldehyde, oxime

>  <IGC50>
1.39

>  <CAS>
107-29-9

>  <SET>
ws

>  <Species>
Tetrahymena pyriformis

>  <Test duration>
48h

$$$$

  Mrv1808 07152009202D          

  5  4  0  0  0  0            999 V2000
    0.7119   -0.4147    0.0000 C   0  0  0  0  0  0  0  0  0  0  0  0
    1.4259   -0.8316    0.0000 C   0  0  0  0  0  0  0  0  0  0  0  0
    0.0000    0.0000    0.0000 N   0  0  0  0  0  0  0  0  0  0  0  0
    2.1379   -0.4147    0.0000 C   0  0  0  0  0  0  0  0  0  0  0  0
    1.4259   -1.6525    0.0000 C   0  0  0  0  0  0  0  0  0  0  0  0
  1  2  1  0  0  0  0
  1  3  3  0  0  0  0
  2  4  1  0  0  0  0
  2  5  1  0  0  0  0
M  END
>  <Name>
Propanenitrile, 2-methyl-

>  <IGC50>
1.381

>  <CAS>
78-82-0

>  <SET>
ws

>  <Species>
Tetrahymena pyriformis

>  <Test duration>
48h

$$$$

  Mrv1808 07152009202D          

  6  5  0  0  0  0            999 V2000
    1.6524    0.0000    0.0000 O   0  0  0  0  0  0  0  0  0  0  0  0
    1.2386   -0.7134    0.0000 C   0  0  0  0  0  0  0  0  0  0  0  0
    1.6524   -1.4294    0.0000 C   0  0  0  0  0  0  0  0  0  0  0  0
    0.4137   -0.7134    0.0000 C   0  0  0  0  0  0  0  0  0  0  0  0
    2.4774   -1.4294    0.0000 O   0  0  0  0  0  0  0  0  0  0  0  0
    0.0000   -1.4294    0.0000 Cl  0  0  0  0  0  0  0  0  0  0  0  0
  1  2  1  0  0  0  0
  2  3  1  0  0  0  0
  2  4  1  0  0  0  0
  3  5  1  0  0  0  0
  4  6  1  0  0  0  0
M  END
>  <Name>
1,2-Propanediol, 3-chloro-

>  <IGC50>
1.37

>  <CAS>
96-24-2

>  <SET>
ws

>  <Species>
Tetrahymena pyriformis

>  <Test duration>
48h

$$$$

  Mrv1808 07152009202D          

  6  5  0  0  0  0            999 V2000
    2.1447    0.0000    0.0000 O   0  0  0  0  0  0  0  0  0  0  0  0
    2.1447   -0.8265    0.0000 C   0  0  0  0  0  0  0  0  0  0  0  0
    2.8596   -1.2382    0.0000 C   0  0  0  0  0  0  0  0  0  0  0  0
    1.4298   -1.2382    0.0000 C   0  0  0  0  0  0  0  0  0  0  0  0
    0.7149   -0.8265    0.0000 C   0  0  0  0  0  0  0  0  0  0  0  0
    0.0000   -0.4118    0.0000 C   0  0  0  0  0  0  0  0  0  0  0  0
  1  2  1  0  0  0  0
  2  3  1  0  0  0  0
  2  4  1  0  0  0  0
  4  5  1  0  0  0  0
  5  6  3  0  0  0  0
M  END
>  <Name>
Pent-4-yn-2-ol

>  <IGC50>
1.368

>  <CAS>
2117-11-5

>  <SET>
ws

>  <Species>
Tetrahymena pyriformis

>  <Test duration>
48h

$$$$

  Mrv1808 07152009203D          

  7  6  0  0  0  0            999 V2000
    3.0288   -0.8117   -0.2204 N   0  0  0  0  0  0  0  0  0  0  0  0
    2.0359   -0.3961    0.2130 C   0  0  0  0  0  0  0  0  0  0  0  0
    0.7789    0.1318    0.7597 C   0  0  0  0  0  0  0  0  0  0  0  0
    0.3838   -0.6039    2.0399 C   0  0  0  0  0  0  0  0  0  0  0  0
   -0.9461   -0.0896    2.5903 C   0  0  0  0  0  0  0  0  0  0  0  0
   -1.3409   -0.8298    3.7961 C   0  0  0  0  0  0  0  0  0  0  0  0
   -1.6541   -1.4133    4.7489 N   0  0  0  0  0  0  0  0  0  0  0  0
  1  2  3  0  0  0  0
  3  2  1  0  0  0  0
  4  3  1  0  0  0  0
  4  5  1  0  0  0  0
  5  6  1  0  0  0  0
  7  6  3  0  0  0  0
M  END
>  <Name>
1,3-Trimethylenedinitrile

>  <IGC50>
1.363

>  <CAS>
544-13-8

>  <SET>
ws

>  <Species>
Tetrahymena pyriformis

>  <Test duration>
48h

$$$$

  Mrv1808 07152009202D          

 11 10  0  0  0  0            999 V2000
    0.0000    0.0000    0.0000 C   0  0  0  0  0  0  0  0  0  0  0  0
   -0.4125    0.7144    0.0000 C   0  0  0  0  0  0  0  0  0  0  0  0
   -0.4125   -0.7144    0.0000 O   0  0  0  0  0  0  0  0  0  0  0  0
    0.8250    0.0000    0.0000 O   0  0  0  0  0  0  0  0  0  0  0  0
   -1.2375    0.7144    0.0000 C   0  0  0  0  0  0  0  0  0  0  0  0
    1.2375   -0.7144    0.0000 C   0  0  0  0  0  0  0  0  0  0  0  0
   -1.6500    0.0000    0.0000 C   0  0  0  0  0  0  0  0  0  0  0  0
   -1.6500    1.4290    0.0000 O   0  0  0  0  0  0  0  0  0  0  0  0
    2.0625   -0.7144    0.0000 C   0  0  0  0  0  0  0  0  0  0  0  0
   -2.4750    0.0000    0.0000 C   0  0  0  0  0  0  0  0  0  0  0  0
   -3.3000    0.0000    0.0000 N   0  0  0  0  0  0  0  0  0  0  0  0
  2  1  1  0  0  0  0
  1  3  2  0  0  0  0
  1  4  1  0  0  0  0
  5  2  1  0  0  0  0
  4  6  1  0  0  0  0
  7  5  1  0  0  0  0
  5  8  1  0  0  0  0
  9  6  1  0  0  0  0
  7 10  1  0  0  0  0
 11 10  3  0  0  0  0
M  END
>  <Name>
Butanoicacid, 4-cyano-3-hydroxy-, ethyl ester, (R)-

>  <IGC50>
1.36

>  <CAS>
141942-85-0

>  <SET>
ws

>  <Species>
Tetrahymena pyriformis

>  <Test duration>
48h

$$$$

  Mrv1808 07152009202D          

  5  5  0  0  0  0            999 V2000
    1.0796    0.0000    0.0000 C   0  0  0  0  0  0  0  0  0  0  0  0
    1.3344   -0.7846    0.0000 C   0  0  0  0  0  0  0  0  0  0  0  0
    0.2549    0.0000    0.0000 C   0  0  0  0  0  0  0  0  0  0  0  0
    0.6673   -1.2691    0.0000 O   0  0  0  0  0  0  0  0  0  0  0  0
    0.0000   -0.7846    0.0000 C   0  0  0  0  0  0  0  0  0  0  0  0
  1  2  2  0  0  0  0
  1  3  1  0  0  0  0
  2  4  1  0  0  0  0
  5  3  2  0  0  0  0
  4  5  1  0  0  0  0
M  END
>  <Name>
Furan

>  <IGC50>
1.35

>  <CAS>
110-00-9

>  <SET>
ws

>  <Species>
Tetrahymena pyriformis

>  <Test duration>
48h

$$$$

  Mrv1808 07152009202D          

  6  5  0  0  0  0            999 V2000
    2.8596   -1.2382    0.0000 N   0  0  0  0  0  0  0  0  0  0  0  0
    2.1447   -0.8264    0.0000 C   0  0  0  0  0  0  0  0  0  0  0  0
    2.1447    0.0000    0.0000 O   0  0  0  0  0  0  0  0  0  0  0  0
    1.4298   -1.2382    0.0000 O   0  0  0  0  0  0  0  0  0  0  0  0
    0.7149   -0.8264    0.0000 C   0  0  0  0  0  0  0  0  0  0  0  0
    0.0000   -1.2382    0.0000 C   0  0  0  0  0  0  0  0  0  0  0  0
  1  2  1  0  0  0  0
  2  3  2  0  0  0  0
  2  4  1  0  0  0  0
  4  5  1  0  0  0  0
  5  6  1  0  0  0  0
M  END
>  <Name>
Carbamic acid, ethyl ester

>  <IGC50>
1.35

>  <CAS>
51-79-6

>  <SET>
ws

>  <Species>
Tetrahymena pyriformis

>  <Test duration>
48h

$$$$

  Mrv1808 07152009202D          

  5  4  0  0  0  0            999 V2000
    0.0000    0.0000    0.0000 N   0  0  0  0  0  0  0  0  0  0  0  0
    0.7075   -0.4082    0.0000 C   0  0  0  0  0  0  0  0  0  0  0  0
    1.4299   -0.8251    0.0000 C   0  0  0  0  0  0  0  0  0  0  0  0
    1.4299   -1.6501    0.0000 C   0  0  0  0  0  0  0  0  0  0  0  0
    2.1374   -0.4082    0.0000 C   0  0  0  0  0  0  0  0  0  0  0  0
  1  2  3  0  0  0  0
  2  3  1  0  0  0  0
  3  4  2  0  0  0  0
  3  5  1  0  0  0  0
M  END
>  <Name>
2-Propenenitrile, 2-methyl-

>  <IGC50>
1.347

>  <CAS>
126-98-7

>  <SET>
ws

>  <Species>
Tetrahymena pyriformis

>  <Test duration>
48h

$$$$

  Mrv1808 07152009203D          

  7  6  0  0  0  0            999 V2000
   -0.0277   -0.8592    0.1091 C   0  0  0  0  0  0  0  0  0  0  0  0
   -1.2187    0.0046   -0.3107 C   0  0  1  0  0  0  0  0  0  0  0  0
    1.2469   -0.0729   -0.0583 C   0  0  0  0  0  0  0  0  0  0  0  0
   -2.5128   -0.7938   -0.1407 C   0  0  0  0  0  0  0  0  0  0  0  0
   -1.2738    1.2577    0.5654 C   0  0  0  0  0  0  0  0  0  0  0  0
    2.4316   -0.6356    0.2523 N   0  0  0  0  0  0  0  0  0  0  0  0
    1.2067    1.0663   -0.4726 O   0  0  0  0  0  0  0  0  0  0  0  0
  1  2  1  0  0  0  0
  1  3  1  0  0  0  0
  2  4  1  0  0  0  0
  2  5  1  0  0  0  0
  3  6  1  0  0  0  0
  3  7  2  0  0  0  0
M  END
>  <Name>
3-methylbutanamide

>  <IGC50>
1.34

>  <CAS>
541-46-8

>  <SET>
ws

>  <Species>
Tetrahymena pyriformis

>  <Test duration>
48h

$$$$

  Mrv1808 07152009202D          

  8  8  0  0  0  0            999 V2000
    0.0000    0.7110    0.0000 O   0  0  0  0  0  0  0  0  0  0  0  0
    0.8365    0.7110    0.0000 C   0  0  0  0  0  0  0  0  0  0  0  0
    1.2548    1.4221    0.0000 C   0  0  0  0  0  0  0  0  0  0  0  0
    1.2548    0.0000    0.0000 C   0  0  0  0  0  0  0  0  0  0  0  0
    2.0913    1.4221    0.0000 C   0  0  0  0  0  0  0  0  0  0  0  0
    2.0913    0.0000    0.0000 C   0  0  0  0  0  0  0  0  0  0  0  0
    2.5096    0.7110    0.0000 C   0  0  0  0  0  0  0  0  0  0  0  0
    3.3461    0.7110    0.0000 O   0  0  0  0  0  0  0  0  0  0  0  0
  1  2  2  0  0  0  0
  3  2  1  0  0  0  0
  2  4  1  0  0  0  0
  5  3  1  0  0  0  0
  4  6  1  0  0  0  0
  7  5  1  0  0  0  0
  6  7  1  0  0  0  0
  7  8  2  0  0  0  0
M  END
>  <Name>
1,4-Cyclohexanedione

>  <IGC50>
1.332

>  <CAS>
637-88-7

>  <SET>
ws

>  <Species>
Tetrahymena pyriformis

>  <Test duration>
48h

$$$$

  Mrv1808 07152009203D          

  8  7  0  0  0  0            999 V2000
    2.3488    0.5839   -0.0464 C   0  0  0  0  0  0  0  0  0  0  0  0
    1.0543   -0.2299   -0.1308 C   0  0  0  0  0  0  0  0  0  0  0  0
    3.4058   -0.3390    0.0881 O   0  0  0  0  0  0  0  0  0  0  0  0
   -0.1231    0.6676   -0.2518 N   0  0  0  0  0  0  0  0  0  0  0  0
   -1.4460   -0.0038    0.0114 C   0  0  1  0  0  0  0  0  0  0  0  0
   -2.5416    1.0629   -0.0940 C   0  0  0  0  0  0  0  0  0  0  0  0
   -1.6995   -1.0796   -1.0484 C   0  0  0  0  0  0  0  0  0  0  0  0
   -1.4958   -0.6406    1.4064 C   0  0  0  0  0  0  0  0  0  0  0  0
  1  2  1  0  0  0  0
  1  3  1  0  0  0  0
  2  4  1  0  0  0  0
  4  5  1  0  0  0  0
  5  6  1  0  0  0  0
  5  7  1  0  0  0  0
  5  8  1  0  0  0  0
M  END
>  <Name>
Ethanol, 2-((1,1-dimethylethyl)amino)-

>  <IGC50>
1.327

>  <CAS>
4620-70-6

>  <SET>
ws

>  <Species>
Tetrahymena pyriformis

>  <Test duration>
48h

$$$$

  Mrv1808 07152009202D          

  6  5  0  0  0  0            999 V2000
    0.0000    0.8366    0.0000 O   0  0  0  0  0  0  0  0  0  0  0  0
    0.7111    1.2549    0.0000 C   0  0  0  0  0  0  0  0  0  0  0  0
    1.4641    0.8366    0.0000 C   0  0  0  0  0  0  0  0  0  0  0  0
    2.1333    1.2549    0.0000 C   0  0  0  0  0  0  0  0  0  0  0  0
    1.4641    0.0000    0.0000 N   0  0  0  0  0  0  0  0  0  0  0  0
    2.8444    0.8366    0.0000 O   0  0  0  0  0  0  0  0  0  0  0  0
  1  2  1  0  0  0  0
  2  3  1  0  0  0  0
  3  4  1  0  0  0  0
  3  5  1  0  0  0  0
  4  6  1  0  0  0  0
M  END
>  <Name>
1,3-Propanediol, 2-amino-

>  <IGC50>
1.324

>  <CAS>
534-03-2

>  <SET>
ws

>  <Species>
Tetrahymena pyriformis

>  <Test duration>
48h

$$$$

  Mrv1808 07152009202D          

  7  6  0  0  0  0            999 V2000
    0.0000    0.0000    0.0000 C   0  0  0  0  0  0  0  0  0  0  0  0
    0.7291    0.3860    0.0000 C   0  0  0  0  0  0  0  0  0  0  0  0
    1.4583    0.0000    0.0000 C   0  0  0  0  0  0  0  0  0  0  0  0
    2.2303    0.3860    0.0000 N   0  0  0  0  0  0  0  0  0  0  0  0
    2.9595    0.0000    0.0000 C   0  0  0  0  0  0  0  0  0  0  0  0
    3.6457    0.3860    0.0000 C   0  0  0  0  0  0  0  0  0  0  0  0
    4.4178    0.0000    0.0000 O   0  0  0  0  0  0  0  0  0  0  0  0
  1  2  1  0  0  0  0
  2  3  1  0  0  0  0
  3  4  1  0  0  0  0
  4  5  1  0  0  0  0
  5  6  1  0  0  0  0
  6  7  1  0  0  0  0
M  END
>  <Name>
Ethanol, 2-(propylamino)-

>  <IGC50>
1.316

>  <CAS>
16369-21-4

>  <SET>
ws

>  <Species>
Tetrahymena pyriformis

>  <Test duration>
48h

$$$$

  Mrv1808 07152009202D          

  5  4  0  0  0  0            999 V2000
    0.7334    0.0000    0.0000 C   0  0  0  0  0  0  0  0  0  0  0  0
    1.4260    0.4482    0.0000 C   0  0  0  0  0  0  0  0  0  0  0  0
    0.0000    0.4074    0.0000 C   0  0  0  0  0  0  0  0  0  0  0  0
    2.1187    0.0408    0.0000 C   0  0  0  0  0  0  0  0  0  0  0  0
    2.8520    0.4482    0.0000 O   0  0  0  0  0  0  0  0  0  0  0  0
  1  2  1  0  0  0  0
  1  3  2  0  0  0  0
  2  4  1  0  0  0  0
  4  5  1  0  0  0  0
M  END
>  <Name>
3-Buten-1-ol

>  <IGC50>
1.305

>  <CAS>
627-27-0

>  <SET>
ws

>  <Species>
Tetrahymena pyriformis

>  <Test duration>
48h

$$$$

  Mrv1808 07152009202D          

  6  5  0  0  0  0            999 V2000
    0.0000    0.0000    0.0000 C   0  0  0  0  0  0  0  0  0  0  0  0
    0.7212    0.4007    0.0000 C   0  0  0  0  0  0  0  0  0  0  0  0
    1.4024    0.0000    0.0000 N   0  0  0  0  0  0  0  0  0  0  0  0
    0.7212    1.2020    0.0000 O   0  0  0  0  0  0  0  0  0  0  0  0
    2.0836    0.4007    0.0000 C   0  0  0  0  0  0  0  0  0  0  0  0
    2.8047    0.0000    0.0000 C   0  0  0  0  0  0  0  0  0  0  0  0
  1  2  1  0  0  0  0
  2  3  1  0  0  0  0
  2  4  2  0  0  0  0
  3  5  1  0  0  0  0
  5  6  1  0  0  0  0
M  END
>  <Name>
N-ethylacetamide

>  <IGC50>
1.299

>  <CAS>
625-50-3

>  <SET>
ws

>  <Species>
Tetrahymena pyriformis

>  <Test duration>
48h

$$$$

  Mrv1808 07152009202D          

  7  6  0  0  0  0            999 V2000
    2.8861    0.4183    0.0000 C   0  0  0  0  0  0  0  0  0  0  0  0
    2.1751    0.0000    0.0000 C   0  0  0  0  0  0  0  0  0  0  0  0
    3.6390    0.0000    0.0000 C   0  0  0  0  0  0  0  0  0  0  0  0
    1.4640    0.4183    0.0000 O   0  0  0  0  0  0  0  0  0  0  0  0
    4.3501    0.4183    0.0000 N   0  0  0  0  0  0  0  0  0  0  0  0
    0.7111    0.0000    0.0000 C   0  0  0  0  0  0  0  0  0  0  0  0
    0.0000    0.4183    0.0000 C   0  0  0  0  0  0  0  0  0  0  0  0
  1  2  1  0  0  0  0
  1  3  1  0  0  0  0
  2  4  1  0  0  0  0
  3  5  1  0  0  0  0
  4  6  1  0  0  0  0
  6  7  1  0  0  0  0
M  END
>  <Name>
1-Propanamine, 3-ethoxy-

>  <IGC50>
1.297

>  <CAS>
6291-85-6

>  <SET>
ws

>  <Species>
Tetrahymena pyriformis

>  <Test duration>
48h

$$$$

  Mrv1808 07152009202D          

  5  5  0  0  0  0            999 V2000
   -0.6328   -0.1764    0.0000 N   0  0  0  0  0  0  0  0  0  0  0  0
   -0.0198   -0.6916    0.0000 N   0  0  0  0  0  0  0  0  0  0  0  0
   -0.3670    0.6021    0.0000 C   0  0  0  0  0  0  0  0  0  0  0  0
    0.6567   -0.2561    0.0000 C   0  0  0  0  0  0  0  0  0  0  0  0
    0.4569    0.5593    0.0000 C   0  0  0  0  0  0  0  0  0  0  0  0
  1  2  1  0  0  0  0
  1  3  1  0  0  0  0
  2  4  2  0  0  0  0
  5  3  2  0  0  0  0
  4  5  1  0  0  0  0
M  END
>  <Name>
1H-Pyrazole

>  <IGC50>
1.29

>  <CAS>
288-13-1

>  <SET>
ws

>  <Species>
Tetrahymena pyriformis

>  <Test duration>
48h

$$$$

  Mrv1808 07152009202D          

  4  3  0  0  0  0            999 V2000
    0.0000    0.0000    0.0000 O   0  0  0  0  0  0  0  0  0  0  0  0
    0.7147   -0.4121    0.0000 C   0  0  0  0  0  0  0  0  0  0  0  0
    1.4315    0.0000    0.0000 C   0  0  0  0  0  0  0  0  0  0  0  0
    2.1462   -0.4121    0.0000 C   0  0  0  0  0  0  0  0  0  0  0  0
  1  2  1  0  0  0  0
  2  3  1  0  0  0  0
  3  4  1  0  0  0  0
M  END
>  <Name>
Propyl alcohol

>  <IGC50>
1.254

>  <CAS>
71-23-8

>  <SET>
ws

>  <Species>
Tetrahymena pyriformis

>  <Test duration>
48h

$$$$

  Mrv1808 07152009202D          

  5  4  0  0  0  0            999 V2000
    2.1462   -1.2384    0.0000 C   0  0  0  0  0  0  0  0  0  0  0  0
    1.4315   -0.8263    0.0000 C   0  0  0  0  0  0  0  0  0  0  0  0
    0.7147   -1.2384    0.0000 C   0  0  0  0  0  0  0  0  0  0  0  0
    1.4315    0.0000    0.0000 O   0  0  0  0  0  0  0  0  0  0  0  0
    0.0000   -0.8263    0.0000 C   0  0  0  0  0  0  0  0  0  0  0  0
  1  2  1  0  0  0  0
  2  3  1  0  0  0  0
  2  4  2  0  0  0  0
  3  5  1  0  0  0  0
M  END
>  <Name>
Methyl ethyl ketone

>  <IGC50>
1.254

>  <CAS>
78-93-3

>  <SET>
ws

>  <Species>
Tetrahymena pyriformis

>  <Test duration>
48h

$$$$

  Mrv1808 07152009202D          

 10  9  0  0  0  0            999 V2000
    0.0000   -2.1443    0.0000 O   0  0  0  0  0  0  0  0  0  0  0  0
    0.4125   -1.4308    0.0000 C   0  0  0  0  0  0  0  0  0  0  0  0
    1.2375   -1.4308    0.0000 C   0  0  0  0  0  0  0  0  0  0  0  0
    1.6500   -0.7135    0.0000 N   0  0  0  0  0  0  0  0  0  0  0  0
    1.2375    0.0000    0.0000 C   0  0  0  0  0  0  0  0  0  0  0  0
    2.4788   -0.7135    0.0000 C   0  0  0  0  0  0  0  0  0  0  0  0
    0.4125    0.0000    0.0000 C   0  0  0  0  0  0  0  0  0  0  0  0
    2.8913   -1.4308    0.0000 C   0  0  0  0  0  0  0  0  0  0  0  0
    0.0000   -0.7135    0.0000 O   0  0  0  0  0  0  0  0  0  0  0  0
    3.7163   -1.4308    0.0000 O   0  0  0  0  0  0  0  0  0  0  0  0
  1  2  1  0  0  0  0
  2  3  1  0  0  0  0
  3  4  1  0  0  0  0
  4  5  1  0  0  0  0
  4  6  1  0  0  0  0
  5  7  1  0  0  0  0
  6  8  1  0  0  0  0
  7  9  1  0  0  0  0
  8 10  1  0  0  0  0
M  END
>  <Name>
Ethanol, 2,2',2''-nitrilotris-

>  <IGC50>
1.251

>  <CAS>
102-71-6

>  <SET>
ws

>  <Species>
Tetrahymena pyriformis

>  <Test duration>
48h

$$$$

  Mrv1808 07152009203D          

  6  6  0  0  0  0            999 V2000
    0.9722    1.8307    0.1837 C   0  0  0  0  0  0  0  0  0  0  0  0
    2.1580    1.0949    0.1747 C   0  0  0  0  0  0  0  0  0  0  0  0
    1.0643    3.2218    0.1236 C   0  0  0  0  0  0  0  0  0  0  0  0
    3.3583    1.7181    0.1095 N   0  0  0  0  0  0  0  0  0  0  0  0
    2.2709    3.8329    0.0587 N   0  0  0  0  0  0  0  0  0  0  0  0
    3.3952    3.0733    0.0527 C   0  0  0  0  0  0  0  0  0  0  0  0
  2  1  2  0  0  0  0
  1  3  1  0  0  0  0
  4  2  1  0  0  0  0
  3  5  2  0  0  0  0
  6  4  2  0  0  0  0
  5  6  1  0  0  0  0
M  END
>  <Name>
pyrimidine

>  <IGC50>
1.25

>  <CAS>
289-95-2

>  <SET>
ws

>  <Species>
Tetrahymena pyriformis

>  <Test duration>
48h

$$$$

  Mrv1808 07152009202D          

  6  5  0  0  0  0            999 V2000
    0.7121    0.0000    0.0000 C   0  0  0  0  0  0  0  0  0  0  0  0
    1.4242   -0.4166    0.0000 C   0  0  0  0  0  0  0  0  0  0  0  0
    0.0000   -0.4166    0.0000 N   0  0  0  0  0  0  0  0  0  0  0  0
    2.1363    0.0000    0.0000 C   0  0  0  0  0  0  0  0  0  0  0  0
    2.8484   -0.4166    0.0000 O   0  0  0  0  0  0  0  0  0  0  0  0
    3.5605    0.0000    0.0000 C   0  0  0  0  0  0  0  0  0  0  0  0
  1  2  1  0  0  0  0
  1  3  1  0  0  0  0
  2  4  1  0  0  0  0
  4  5  1  0  0  0  0
  5  6  1  0  0  0  0
M  END
>  <Name>
1-Propanamine, 3-methoxy-

>  <IGC50>
1.228

>  <CAS>
5332-73-0

>  <SET>
ws

>  <Species>
Tetrahymena pyriformis

>  <Test duration>
48h

$$$$

  Mrv1808 07152009203D          

  6  5  0  0  0  0            999 V2000
    1.9788    2.5717    1.9671 C   0  0  0  0  0  0  0  0  0  0  0  0
    1.0533    1.3763    2.0620 C   0  0  0  0  0  0  0  0  0  0  0  0
    3.4323    2.1239    1.9185 C   0  0  0  0  0  0  0  0  0  0  0  0
    0.5998    0.7889    0.8795 N   0  0  0  0  0  0  0  0  0  0  0  0
    0.6607    0.8762    3.1105 O   0  0  0  0  0  0  0  0  0  0  0  0
    4.3666    3.3112    1.8551 C   0  0  0  0  0  0  0  0  0  0  0  0
  1  2  1  0  0  0  0
  1  3  1  0  0  0  0
  2  4  1  0  0  0  0
  2  5  2  0  0  0  0
  3  6  1  0  0  0  0
M  END
>  <Name>
butanamide

>  <IGC50>
1.215

>  <CAS>
541-35-5

>  <SET>
ws

>  <Species>
Tetrahymena pyriformis

>  <Test duration>
48h

$$$$

  Mrv1808 07152009202D          

  9  9  0  0  0  0            999 V2000
    0.0000   -0.2316    0.0000 C   0  0  0  0  0  0  0  0  0  0  0  0
    0.6674   -0.7150    0.0000 C   0  0  0  0  0  0  0  0  0  0  0  0
    0.1157   -1.3279    0.0000 C   0  0  0  0  0  0  0  0  0  0  0  0
    1.0793    0.0000    0.0000 O   0  0  0  0  0  0  0  0  0  0  0  0
    1.2190   -1.3279    0.0000 O   0  0  0  0  0  0  0  0  0  0  0  0
    1.8898   -0.1737    0.0000 C   0  0  0  0  0  0  0  0  0  0  0  0
    1.9749   -0.9943    0.0000 C   0  0  0  0  0  0  0  0  0  0  0  0
    2.6899   -1.4062    0.0000 C   0  0  0  0  0  0  0  0  0  0  0  0
    3.4049   -0.9943    0.0000 O   0  0  0  0  0  0  0  0  0  0  0  0
  1  2  1  0  0  0  0
  2  3  1  0  0  0  0
  2  4  1  0  0  0  0
  2  5  1  0  0  0  0
  4  6  1  0  0  0  0
  7  5  1  0  0  0  0
  6  7  1  0  0  0  0
  7  8  1  0  0  0  0
  8  9  1  0  0  0  0
M  END
>  <Name>
1,3-Dioxolane-4-methanol, 2,2-dimethyl-

>  <IGC50>
1.21

>  <CAS>
100-79-8

>  <SET>
ws

>  <Species>
Tetrahymena pyriformis

>  <Test duration>
48h

$$$$

  Mrv1808 07152009202D          

  5  4  0  0  0  0            999 V2000
    0.0000   -0.4118    0.0000 C   0  0  0  0  0  0  0  0  0  0  0  0
    0.7149    0.0000    0.0000 O   0  0  0  0  0  0  0  0  0  0  0  0
    1.4298   -0.4118    0.0000 C   0  0  0  0  0  0  0  0  0  0  0  0
    2.1447    0.0000    0.0000 C   0  0  0  0  0  0  0  0  0  0  0  0
    2.8595   -0.4118    0.0000 N   0  0  0  0  0  0  0  0  0  0  0  0
  1  2  1  0  0  0  0
  2  3  1  0  0  0  0
  3  4  1  0  0  0  0
  4  5  1  0  0  0  0
M  END
>  <Name>
Ethanamine, 2-methoxy-

>  <IGC50>
1.21

>  <CAS>
109-85-3

>  <SET>
ws

>  <Species>
Tetrahymena pyriformis

>  <Test duration>
48h

$$$$

  Mrv1808 07152009202D          

  7  6  0  0  0  0            999 V2000
    0.0000   -0.4130    0.0000 O   0  0  0  0  0  0  0  0  0  0  0  0
    0.7185    0.0000    0.0000 C   0  0  0  0  0  0  0  0  0  0  0  0
    1.4327   -0.4130    0.0000 C   0  0  0  0  0  0  0  0  0  0  0  0
    2.1511    0.0000    0.0000 N   0  0  0  0  0  0  0  0  0  0  0  0
    2.8696   -0.4130    0.0000 C   0  0  0  0  0  0  0  0  0  0  0  0
    3.5837    0.0000    0.0000 C   0  0  0  0  0  0  0  0  0  0  0  0
    4.3022   -0.4130    0.0000 O   0  0  0  0  0  0  0  0  0  0  0  0
  1  2  1  0  0  0  0
  2  3  1  0  0  0  0
  3  4  1  0  0  0  0
  4  5  1  0  0  0  0
  5  6  1  0  0  0  0
  6  7  1  0  0  0  0
M  END
>  <Name>
Ethanol, 2,2'-iminobis-

>  <IGC50>
1.206

>  <CAS>
111-42-2

>  <SET>
ws

>  <Species>
Tetrahymena pyriformis

>  <Test duration>
48h

$$$$

  Mrv1808 07152009203D          

  6  5  0  0  0  0            999 V2000
   -0.9196   -0.6712   -0.4775 C   0  0  0  0  0  0  0  0  0  0  0  0
    0.0144    0.3362    0.2327 C   0  0  1  0  0  0  0  0  0  0  0  0
   -2.1117   -0.7399    0.2711 O   0  0  0  0  0  0  0  0  0  0  0  0
    1.4415    0.2512   -0.3528 C   0  0  0  0  0  0  0  0  0  0  0  0
   -0.4179    1.6674    0.0335 O   0  0  0  0  0  0  0  0  0  0  0  0
    2.2806   -0.8091    0.2298 N   0  0  0  0  0  0  0  0  0  0  0  0
  1  2  1  0  0  0  0
  1  3  1  0  0  0  0
  2  4  1  0  0  0  0
  2  5  1  0  0  0  0
  4  6  1  0  0  0  0
M  END
>  <Name>
1,2-Propanediol, 3-amino-

>  <IGC50>
1.188

>  <CAS>
616-30-8

>  <SET>
ws

>  <Species>
Tetrahymena pyriformis

>  <Test duration>
48h

$$$$

  Mrv1808 07152009202D          

  5  4  0  0  0  0            999 V2000
    1.4298   -0.4118    0.0000 C   0  0  0  0  0  0  0  0  0  0  0  0
    0.7149    0.0000    0.0000 C   0  0  0  0  0  0  0  0  0  0  0  0
    2.1447    0.0000    0.0000 N   0  0  0  0  0  0  0  0  0  0  0  0
    0.0000   -0.4118    0.0000 O   0  0  0  0  0  0  0  0  0  0  0  0
    2.8595   -0.4118    0.0000 C   0  0  0  0  0  0  0  0  0  0  0  0
  1  2  1  0  0  0  0
  1  3  1  0  0  0  0
  2  4  1  0  0  0  0
  3  5  1  0  0  0  0
M  END
>  <Name>
Ethanol, 2-(methylamino)-

>  <IGC50>
1.18

>  <CAS>
109-83-1

>  <SET>
ws

>  <Species>
Tetrahymena pyriformis

>  <Test duration>
48h

$$$$

  Mrv1808 07152009203D          

  6  6  0  0  0  0            999 V2000
    0.9520    1.0468    1.8281 C   0  0  0  0  0  0  0  0  0  0  0  0
    0.9284    0.3277    0.6270 C   0  0  0  0  0  0  0  0  0  0  0  0
    2.1285    1.4246    2.3795 N   0  0  0  0  0  0  0  0  0  0  0  0
    2.0818    0.0000    0.0000 N   0  0  0  0  0  0  0  0  0  0  0  0
    3.2819    1.0969    1.7525 C   0  0  0  0  0  0  0  0  0  0  0  0
    3.2585    0.3778    0.5514 C   0  0  0  0  0  0  0  0  0  0  0  0
  2  1  2  0  0  0  0
  1  3  1  0  0  0  0
  4  2  1  0  0  0  0
  3  5  2  0  0  0  0
  6  4  2  0  0  0  0
  5  6  1  0  0  0  0
M  END
>  <Name>
Pyrazine

>  <IGC50>
1.18

>  <CAS>
290-37-9

>  <SET>
ws

>  <Species>
Tetrahymena pyriformis

>  <Test duration>
48h

$$$$

  Mrv1808 07152009202D          

  6  5  0  0  0  0            999 V2000
    0.0000   -0.7136    0.0000 N   0  0  0  0  0  0  0  0  0  0  0  0
    0.8251   -0.7136    0.0000 C   0  0  0  0  0  0  0  0  0  0  0  0
    1.6501   -0.7136    0.0000 C   0  0  0  0  0  0  0  0  0  0  0  0
    2.0663    0.0000    0.0000 C   0  0  0  0  0  0  0  0  0  0  0  0
    2.8913    0.0000    0.0000 C   0  0  0  0  0  0  0  0  0  0  0  0
    3.7164    0.0000    0.0000 N   0  0  0  0  0  0  0  0  0  0  0  0
  1  2  3  0  0  0  0
  2  3  1  0  0  0  0
  3  4  1  0  0  0  0
  4  5  1  0  0  0  0
  5  6  3  0  0  0  0
M  END
>  <Name>
Butanedinitrile

>  <IGC50>
1.176

>  <CAS>
110-61-2

>  <SET>
ws

>  <Species>
Tetrahymena pyriformis

>  <Test duration>
48h

$$$$

  Mrv1808 07152009202D          

  8  7  0  0  0  0            999 V2000
    2.1457   -0.8261    0.0000 N   0  0  0  0  0  0  0  0  0  0  0  0
    2.1457    0.0000    0.0000 C   0  0  0  0  0  0  0  0  0  0  0  0
    2.8610   -1.2373    0.0000 C   0  0  0  0  0  0  0  0  0  0  0  0
    1.4305   -1.2373    0.0000 C   0  0  0  0  0  0  0  0  0  0  0  0
    3.5762   -0.8261    0.0000 C   0  0  0  0  0  0  0  0  0  0  0  0
    0.7153   -0.8261    0.0000 C   0  0  0  0  0  0  0  0  0  0  0  0
    3.5762    0.0000    0.0000 O   0  0  0  0  0  0  0  0  0  0  0  0
    0.0000   -1.2373    0.0000 O   0  0  0  0  0  0  0  0  0  0  0  0
  1  2  1  0  0  0  0
  1  3  1  0  0  0  0
  1  4  1  0  0  0  0
  3  5  1  0  0  0  0
  4  6  1  0  0  0  0
  5  7  1  0  0  0  0
  6  8  1  0  0  0  0
M  END
>  <Name>
Ethanol, 2,2'-(methylimino)bis-

>  <IGC50>
1.166

>  <CAS>
105-59-9

>  <SET>
ws

>  <Species>
Tetrahymena pyriformis

>  <Test duration>
48h

$$$$

  Mrv1808 07152009202D          

  5  4  0  0  0  0            999 V2000
    2.0639    0.0000    0.0000 C   0  0  0  0  0  0  0  0  0  0  0  0
    2.8906    0.0000    0.0000 O   0  0  0  0  0  0  0  0  0  0  0  0
    1.6505   -0.7140    0.0000 C   0  0  0  0  0  0  0  0  0  0  0  0
    0.8267   -0.7140    0.0000 C   0  0  0  0  0  0  0  0  0  0  0  0
    0.0000   -0.7140    0.0000 C   0  0  0  0  0  0  0  0  0  0  0  0
  1  2  1  0  0  0  0
  1  3  1  0  0  0  0
  3  4  1  0  0  0  0
  4  5  3  0  0  0  0
M  END
>  <Name>
But-3-yn-1-ol

>  <IGC50>
1.161

>  <CAS>
927-74-2

>  <SET>
ws

>  <Species>
Tetrahymena pyriformis

>  <Test duration>
48h

$$$$

  Mrv1808 07152009202D          

  7  6  0  0  0  0            999 V2000
    2.0033    0.8013    0.0000 C   0  0  0  0  0  0  0  0  0  0  0  0
    1.1620    0.8013    0.0000 S   0  0  0  0  0  0  0  0  0  0  0  0
    2.4040    0.0801    0.0000 C   0  0  0  0  0  0  0  0  0  0  0  0
    0.4006    0.8013    0.0000 C   0  0  0  0  0  0  0  0  0  0  0  0
    1.1620    0.0000    0.0000 O   0  0  0  0  0  0  0  0  0  0  0  0
    1.1620    1.6027    0.0000 O   0  0  0  0  0  0  0  0  0  0  0  0
    0.0000    1.5226    0.0000 C   0  0  0  0  0  0  0  0  0  0  0  0
  1  2  1  0  0  0  0
  1  3  1  0  0  0  0
  2  4  1  0  0  0  0
  2  5  2  0  0  0  0
  2  6  2  0  0  0  0
  4  7  1  0  0  0  0
M  END
>  <Name>
Ethyl sulfone (8CI)

>  <IGC50>
1.16

>  <CAS>
597-35-3

>  <SET>
ws

>  <Species>
Tetrahymena pyriformis

>  <Test duration>
48h

$$$$

  Mrv1808 07152009202D          

  4  3  0  0  0  0            999 V2000
    0.7143    0.0000    0.0000 O   0  0  0  0  0  0  0  0  0  0  0  0
    0.7143   -0.8243    0.0000 C   0  0  0  0  0  0  0  0  0  0  0  0
    0.0000   -1.2371    0.0000 C   0  0  0  0  0  0  0  0  0  0  0  0
    1.4286   -1.2371    0.0000 C   0  0  0  0  0  0  0  0  0  0  0  0
  1  2  1  0  0  0  0
  2  3  1  0  0  0  0
  2  4  1  0  0  0  0
M  END
>  <Name>
Isopropyl alcohol

>  <IGC50>
1.118

>  <CAS>
67-63-0

>  <SET>
ws

>  <Species>
Tetrahymena pyriformis

>  <Test duration>
48h

$$$$

  Mrv1808 07152009202D          

  6  5  0  0  0  0            999 V2000
    0.4125   -0.7128    0.0000 C   0  0  0  0  0  0  0  0  0  0  0  0
    0.0000    0.0000    0.0000 O   0  0  0  0  0  0  0  0  0  0  0  0
    1.2375   -0.7128    0.0000 C   0  0  0  0  0  0  0  0  0  0  0  0
    2.0625   -0.7128    0.0000 C   0  0  0  0  0  0  0  0  0  0  0  0
    2.8876   -0.7128    0.0000 C   0  0  0  0  0  0  0  0  0  0  0  0
    3.3001    0.0000    0.0000 O   0  0  0  0  0  0  0  0  0  0  0  0
  1  2  1  0  0  0  0
  1  3  1  0  0  0  0
  3  4  3  0  0  0  0
  4  5  1  0  0  0  0
  5  6  1  0  0  0  0
M  END
>  <Name>
2-Butyne-1,4-diol

>  <IGC50>
1.116

>  <CAS>
110-65-6

>  <SET>
ws

>  <Species>
Tetrahymena pyriformis

>  <Test duration>
48h

$$$$

  Mrv1808 07152009202D          

  4  3  0  0  0  0            999 V2000
    0.0000    0.0000    0.0000 O   0  0  0  0  0  0  0  0  0  0  0  0
    0.7131   -0.4111    0.0000 C   0  0  0  0  0  0  0  0  0  0  0  0
    1.4283    0.0000    0.0000 C   0  0  0  0  0  0  0  0  0  0  0  0
    2.1415   -0.4111    0.0000 N   0  0  0  0  0  0  0  0  0  0  0  0
  1  2  1  0  0  0  0
  2  3  1  0  0  0  0
  3  4  1  0  0  0  0
M  END
>  <Name>
Ethanol, 2-amino-

>  <IGC50>
1.115

>  <CAS>
141-43-5

>  <SET>
ws

>  <Species>
Tetrahymena pyriformis

>  <Test duration>
48h

$$$$

  Mrv1808 07152009202D          

  4  3  0  0  0  0            999 V2000
    0.0000    0.0000    0.0000 C   0  0  0  0  0  0  0  0  0  0  0  0
    0.7147   -0.4121    0.0000 C   0  0  0  0  0  0  0  0  0  0  0  0
    1.4315    0.0000    0.0000 C   0  0  0  0  0  0  0  0  0  0  0  0
    2.1462   -0.4121    0.0000 O   0  0  0  0  0  0  0  0  0  0  0  0
  1  2  2  0  0  0  0
  2  3  1  0  0  0  0
  3  4  1  0  0  0  0
M  END
>  <Name>
2-Propen-1-ol

>  <IGC50>
1.082

>  <CAS>
107-18-6

>  <SET>
ws

>  <Species>
Tetrahymena pyriformis

>  <Test duration>
48h

$$$$

  Mrv1808 07152009203D          

  7  6  0  0  0  0            999 V2000
   -2.5042    0.4947    0.0006 C   0  0  0  0  0  0  0  0  0  0  0  0
   -1.2534   -0.3813   -0.0026 C   0  0  0  0  0  0  0  0  0  0  0  0
   -3.6233   -0.3618    0.0018 O   0  0  0  0  0  0  0  0  0  0  0  0
    0.0000    0.4781   -0.0007 C   0  0  0  0  0  0  0  0  0  0  0  0
    1.2534   -0.3813   -0.0015 C   0  0  0  0  0  0  0  0  0  0  0  0
    2.5042    0.4947   -0.0005 C   0  0  0  0  0  0  0  0  0  0  0  0
    3.6233   -0.3618    0.0022 O   0  0  0  0  0  0  0  0  0  0  0  0
  1  2  1  0  0  0  0
  1  3  1  0  0  0  0
  2  4  1  0  0  0  0
  4  5  1  0  0  0  0
  5  6  1  0  0  0  0
  6  7  1  0  0  0  0
M  END
>  <Name>
1,5-Pentanediol

>  <IGC50>
1.066

>  <CAS>
111-29-5

>  <SET>
ws

>  <Species>
Tetrahymena pyriformis

>  <Test duration>
48h

$$$$

  Mrv1808 07152009202D          

  6  5  0  0  0  0            999 V2000
    1.4259   -0.8209    0.0000 C   0  0  0  0  0  0  0  0  0  0  0  0
    0.7119   -1.2378    0.0000 N   0  0  0  0  0  0  0  0  0  0  0  0
    1.4259    0.0000    0.0000 O   0  0  0  0  0  0  0  0  0  0  0  0
    2.1378   -1.2378    0.0000 C   0  0  0  0  0  0  0  0  0  0  0  0
    0.7119   -2.0587    0.0000 C   0  0  0  0  0  0  0  0  0  0  0  0
    0.0000   -0.8316    0.0000 C   0  0  0  0  0  0  0  0  0  0  0  0
  1  2  1  0  0  0  0
  1  3  2  0  0  0  0
  1  4  1  0  0  0  0
  2  5  1  0  0  0  0
  2  6  1  0  0  0  0
M  END
>  <Name>
Acetamide, N,N-dimethyl-

>  <IGC50>
1.051

>  <CAS>
127-19-5

>  <SET>
ws

>  <Species>
Tetrahymena pyriformis

>  <Test duration>
48h

$$$$

  Mrv1808 07152009202D          

  8  7  0  0  0  0            999 V2000
    2.2027   -0.1102    0.0000 C   0  0  0  0  0  0  0  0  0  0  0  0
    2.1426   -0.8277    0.0000 C   0  0  0  0  0  0  0  0  0  0  0  0
    1.4351   -1.2349    0.0000 C   0  0  0  0  0  0  0  0  0  0  0  0
    3.3374   -0.6375    0.0000 C   0  0  0  0  0  0  0  0  0  0  0  0
    2.5598   -1.5452    0.0000 O   0  0  0  0  0  0  0  0  0  0  0  0
    0.7176   -0.8277    0.0000 C   0  0  0  0  0  0  0  0  0  0  0  0
    0.0000   -1.2349    0.0000 O   0  0  0  0  0  0  0  0  0  0  0  0
    0.7176    0.0000    0.0000 C   0  0  0  0  0  0  0  0  0  0  0  0
  1  2  1  0  0  0  0
  2  3  1  0  0  0  0
  2  4  1  0  0  0  0
  2  5  1  0  0  0  0
  3  6  1  0  0  0  0
  6  7  1  0  0  0  0
  6  8  1  0  0  0  0
M  END
>  <Name>
2,4-Pentanediol, 2-methyl-

>  <IGC50>
1.047

>  <CAS>
107-41-5

>  <SET>
ws

>  <Species>
Tetrahymena pyriformis

>  <Test duration>
48h

$$$$

  Mrv1808 07152009203D          

  8  7  0  0  0  0            999 V2000
    3.1013    0.3547    0.0832 C   0  0  0  0  0  0  0  0  0  0  0  0
    1.6657    0.0298   -0.3235 C   0  0  2  0  0  0  0  0  0  0  0  0
    0.6976    1.0777    0.2580 C   0  0  0  0  0  0  0  0  0  0  0  0
    1.3953   -1.2752    0.1444 O   0  0  0  0  0  0  0  0  0  0  0  0
   -0.6960    1.0350   -0.3524 C   0  0  0  0  0  0  0  0  0  0  0  0
   -1.6422    0.0303    0.3233 C   0  0  1  0  0  0  0  0  0  0  0  0
   -3.1016    0.3874    0.0443 C   0  0  0  0  0  0  0  0  0  0  0  0
   -1.3297   -1.2558   -0.1959 O   0  0  0  0  0  0  0  0  0  0  0  0
  1  2  1  0  0  0  0
  2  3  1  0  0  0  0
  2  4  1  0  0  0  0
  3  5  1  0  0  0  0
  5  6  1  0  0  0  0
  6  7  1  0  0  0  0
  6  8  1  0  0  0  0
M  END
>  <Name>
2,4-Hexanediol

>  <IGC50>
1.04

>  <CAS>
2935-44-6

>  <SET>
ws

>  <Species>
Tetrahymena pyriformis

>  <Test duration>
48h

$$$$

  Mrv1808 07152009202D          

  5  4  0  0  0  0            999 V2000
    0.0000   -1.2374    0.0000 N   0  0  0  0  0  0  0  0  0  0  0  0
    0.7142   -0.8256    0.0000 C   0  0  0  0  0  0  0  0  0  0  0  0
    0.7142    0.0000    0.0000 O   0  0  0  0  0  0  0  0  0  0  0  0
    1.4304   -1.2374    0.0000 O   0  0  0  0  0  0  0  0  0  0  0  0
    2.1446   -0.8256    0.0000 C   0  0  0  0  0  0  0  0  0  0  0  0
  1  2  1  0  0  0  0
  2  3  2  0  0  0  0
  2  4  1  0  0  0  0
  4  5  1  0  0  0  0
M  END
>  <Name>
Carbamic acid, methyl ester

>  <IGC50>
1.025

>  <CAS>
598-55-0

>  <SET>
ws

>  <Species>
Tetrahymena pyriformis

>  <Test duration>
48h

$$$$

  Mrv1808 07152009203D          

  5  4  0  0  0  0            999 V2000
   -0.5106   -0.1006    0.0006 C   0  0  0  0  0  0  0  0  0  0  0  0
   -1.8242    0.6386    0.0010 C   0  0  0  0  0  0  0  0  0  0  0  0
   -0.4021   -1.3204   -0.0004 O   0  0  0  0  0  0  0  0  0  0  0  0
    0.6598    0.6784   -0.0033 N   0  0  0  0  0  0  0  0  0  0  0  0
    2.0055    0.0945    0.0017 C   0  0  0  0  0  0  0  0  0  0  0  0
  1  2  1  0  0  0  0
  1  3  2  0  0  0  0
  1  4  1  0  0  0  0
  4  5  1  0  0  0  0
M  END
>  <Name>
Acetamide, N-methyl-

>  <IGC50>
1.02

>  <CAS>
79-16-3

>  <SET>
ws

>  <Species>
Tetrahymena pyriformis

>  <Test duration>
48h

$$$$

  Mrv1808 07152009202D          

  3  2  0  0  0  0            999 V2000
    1.4285   -0.4129    0.0000 C   0  0  0  0  0  0  0  0  0  0  0  0
    0.7143    0.0000    0.0000 C   0  0  0  0  0  0  0  0  0  0  0  0
    0.0000   -0.4129    0.0000 O   0  0  0  0  0  0  0  0  0  0  0  0
  1  2  1  0  0  0  0
  2  3  1  0  0  0  0
M  END
>  <Name>
Ethyl alcohol

>  <IGC50>
1.009

>  <CAS>
64-17-5

>  <SET>
ws

>  <Species>
Tetrahymena pyriformis

>  <Test duration>
48h

$$$$

  Mrv1808 07152009203D          

  6  5  0  0  0  0            999 V2000
    2.1533    1.7999    2.2258 C   0  0  0  0  0  0  0  0  0  0  0  0
    0.8886    1.0561    1.8623 C   0  0  0  0  0  0  0  0  0  0  0  0
    3.4103    1.0861    1.7047 C   0  0  2  0  0  0  0  0  0  0  0  0
    4.6948    1.6810    2.3282 C   0  0  0  0  0  0  0  0  0  0  0  0
    3.4812    1.0547    0.2995 O   0  0  0  0  0  0  0  0  0  0  0  0
    4.8185    3.0265    1.9277 O   0  0  0  0  0  0  0  0  0  0  0  0
  1  2  1  0  0  0  0
  1  3  1  0  0  0  0
  3  4  1  0  0  0  0
  3  5  1  0  0  0  0
  6  4  1  0  0  0  0
M  END
>  <Name>
(+/-)-1,2-butanediol

>  <IGC50>
0.952

>  <CAS>
26171-83-5

>  <SET>
ws

>  <Species>
Tetrahymena pyriformis

>  <Test duration>
48h

$$$$

  Mrv1808 07152009202D          

  6  5  0  0  0  0            999 V2000
    1.2131    0.0000    0.0000 C   0  0  0  0  0  0  0  0  0  0  0  0
    2.0497    0.0000    0.0000 C   0  0  0  0  0  0  0  0  0  0  0  0
    0.7948    0.7111    0.0000 C   0  0  0  0  0  0  0  0  0  0  0  0
    2.5098    0.6693    0.0000 C   0  0  0  0  0  0  0  0  0  0  0  0
    0.0000    0.7111    0.0000 O   0  0  0  0  0  0  0  0  0  0  0  0
    3.3046    0.6693    0.0000 O   0  0  0  0  0  0  0  0  0  0  0  0
  1  2  2  0  0  0  0
  1  3  1  0  0  0  0
  2  4  1  0  0  0  0
  3  5  1  0  0  0  0
  4  6  1  0  0  0  0
M  END
>  <Name>
(Z)-2-Butene-1,4-diol

>  <IGC50>
0.851

>  <CAS>
6117-80-2

>  <SET>
ws

>  <Species>
Tetrahymena pyriformis

>  <Test duration>
48h

$$$$

  Mrv1808 07152009203D          

  5  4  0  0  0  0            999 V2000
    2.7919    2.2812    0.8612 C   0  0  0  0  0  0  0  0  0  0  0  0
    2.3310    1.4525    2.3826 S   0  0  2  0  0  0  0  0  0  0  0  0
    0.6269    1.9902    2.5253 C   0  0  0  0  0  0  0  0  0  0  0  0
    3.1100    2.0120    3.4940 O   0  0  0  0  0  0  0  0  0  0  0  0
    2.3645    0.0000    2.1723 O   0  0  0  0  0  0  0  0  0  0  0  0
  1  2  1  0  0  0  0
  2  3  1  0  0  0  0
  2  4  2  0  0  0  0
  2  5  2  0  0  0  0
M  END
>  <Name>
Methane, sulfonylbis-

>  <IGC50>
0.8

>  <CAS>
67-71-0

>  <SET>
ws

>  <Species>
Tetrahymena pyriformis

>  <Test duration>
48h

$$$$

  Mrv1808 07152009202D          

  4  3  0  0  0  0            999 V2000
    1.2371    0.0000    0.0000 C   0  0  0  0  0  0  0  0  0  0  0  0
    0.8243   -0.7143    0.0000 C   0  0  0  0  0  0  0  0  0  0  0  0
    1.2371   -1.4286    0.0000 C   0  0  0  0  0  0  0  0  0  0  0  0
    0.0000   -0.7143    0.0000 O   0  0  0  0  0  0  0  0  0  0  0  0
  1  2  1  0  0  0  0
  2  3  1  0  0  0  0
  2  4  2  0  0  0  0
M  END
>  <Name>
2-Propanone

>  <IGC50>
0.796

>  <CAS>
67-64-1

>  <SET>
ws

>  <Species>
Tetrahymena pyriformis

>  <Test duration>
48h

$$$$

  Mrv1808 07152009202D          

  6  5  0  0  0  0            999 V2000
    1.4304   -0.4113    0.0000 C   0  0  0  0  0  0  0  0  0  0  0  0
    0.7152    0.0000    0.0000 C   0  0  0  0  0  0  0  0  0  0  0  0
    2.1456    0.0000    0.0000 C   0  0  0  0  0  0  0  0  0  0  0  0
    0.0000   -0.4113    0.0000 O   0  0  0  0  0  0  0  0  0  0  0  0
    2.8607   -0.4113    0.0000 C   0  0  0  0  0  0  0  0  0  0  0  0
    3.5759    0.0000    0.0000 O   0  0  0  0  0  0  0  0  0  0  0  0
  1  2  1  0  0  0  0
  1  3  1  0  0  0  0
  2  4  1  0  0  0  0
  3  5  1  0  0  0  0
  5  6  1  0  0  0  0
M  END
>  <Name>
1,4-Butanediol

>  <IGC50>
0.764

>  <CAS>
110-63-4

>  <SET>
ws

>  <Species>
Tetrahymena pyriformis

>  <Test duration>
48h

$$$$

  Mrv1808 07152009202D          

  6  5  0  0  0  0            999 V2000
    0.7259   -0.8293    0.0000 C   0  0  0  0  0  0  0  0  0  0  0  0
    1.4433   -1.2367    0.0000 C   0  0  0  0  0  0  0  0  0  0  0  0
    0.0000   -1.2367    0.0000 O   0  0  0  0  0  0  0  0  0  0  0  0
    2.1607   -0.8293    0.0000 C   0  0  0  0  0  0  0  0  0  0  0  0
    2.8694   -1.2367    0.0000 C   0  0  0  0  0  0  0  0  0  0  0  0
    2.1607    0.0000    0.0000 O   0  0  0  0  0  0  0  0  0  0  0  0
  1  2  1  0  0  0  0
  1  3  1  0  0  0  0
  2  4  1  0  0  0  0
  4  5  1  0  0  0  0
  4  6  1  0  0  0  0
M  END
>  <Name>
1,3-Butanediol

>  <IGC50>
0.699

>  <CAS>
107-88-0

>  <SET>
ws

>  <Species>
Tetrahymena pyriformis

>  <Test duration>
48h

$$$$

  Mrv1808 07152009202D          

  4  3  0  0  0  0            999 V2000
    1.2371    0.0000    0.0000 C   0  0  0  0  0  0  0  0  0  0  0  0
    0.8243   -0.7143    0.0000 C   0  0  0  0  0  0  0  0  0  0  0  0
    1.2371   -1.4286    0.0000 O   0  0  0  0  0  0  0  0  0  0  0  0
    0.0000   -0.7143    0.0000 N   0  0  0  0  0  0  0  0  0  0  0  0
  1  2  1  0  0  0  0
  2  3  2  0  0  0  0
  2  4  1  0  0  0  0
M  END
>  <Name>
Acetamide

>  <IGC50>
0.678

>  <CAS>
60-35-5

>  <SET>
ws

>  <Species>
Tetrahymena pyriformis

>  <Test duration>
48h

$$$$

  Mrv1808 07152009202D          

  4  3  0  0  0  0            999 V2000
    1.2371    0.0000    0.0000 C   0  0  0  0  0  0  0  0  0  0  0  0
    0.8243   -0.7143    0.0000 S   0  0  0  0  0  0  0  0  0  0  0  0
    1.2371   -1.4286    0.0000 O   0  0  0  0  0  0  0  0  0  0  0  0
    0.0000   -0.7143    0.0000 C   0  0  0  0  0  0  0  0  0  0  0  0
  1  2  1  0  0  0  0
  2  3  2  0  0  0  0
  2  4  1  0  0  0  0
M  END
>  <Name>
Sulfinylbis-methane (9CI)

>  <IGC50>
0.548

>  <CAS>
67-68-5

>  <SET>
ws

>  <Species>
Tetrahymena pyriformis

>  <Test duration>
48h

$$$$

  Mrv1808 07152009202D          

  5  4  0  0  0  0            999 V2000
    2.1446   -1.2374    0.0000 C   0  0  0  0  0  0  0  0  0  0  0  0
    1.4304   -0.8256    0.0000 C   0  0  0  0  0  0  0  0  0  0  0  0
    0.7142   -1.2374    0.0000 C   0  0  0  0  0  0  0  0  0  0  0  0
    1.4304    0.0000    0.0000 O   0  0  0  0  0  0  0  0  0  0  0  0
    0.0000   -0.8256    0.0000 O   0  0  0  0  0  0  0  0  0  0  0  0
  1  2  1  0  0  0  0
  2  3  1  0  0  0  0
  2  4  1  0  0  0  0
  3  5  1  0  0  0  0
M  END
>  <Name>
1,2-Propylene glycol

>  <IGC50>
0.49

>  <CAS>
57-55-6

>  <SET>
ws

>  <Species>
Tetrahymena pyriformis

>  <Test duration>
48h

$$$$
